
---------- Begin Simulation Statistics ----------
final_tick                               126441259000                       # Number of ticks from beginning of simulation (restored from checkpoints and never reset)
host_inst_rate                                 156440                       # Simulator instruction rate (inst/s)
host_mem_usage                                 671004                       # Number of bytes of host memory used
host_op_rate                                   157769                       # Simulator op (including micro ops) rate (op/s)
host_seconds                                   639.22                       # Real time elapsed on the host
host_tick_rate                              197804943                       # Simulator tick rate (ticks/s)
sim_freq                                 1000000000000                       # Frequency of simulated ticks
sim_insts                                   100000001                       # Number of instructions simulated
sim_ops                                     100849488                       # Number of ops (including micro ops) simulated
sim_seconds                                  0.126441                       # Number of seconds simulated
sim_ticks                                126441259000                       # Number of ticks simulated
system.cpu.committedInsts                   100000001                       # Number of instructions committed
system.cpu.committedOps                     100849488                       # Number of ops (including micro ops) committed
system.cpu.cpi                               1.264413                       # CPI: cycles per instruction
system.cpu.discardedOps                        941111                       # Number of ops (including micro ops) which were discarded before commit
system.cpu.idleCycles                         3307238                       # Total number of cycles that the object has spent stopped
system.cpu.ipc                               0.790881                       # IPC: instructions per cycle
system.cpu.numCycles                        126441259                       # number of cpu cycles simulated
system.cpu.numFetchSuspends                         0                       # Number of times Execute suspended instruction fetching
system.cpu.numWorkItemsCompleted                    0                       # number of work items this cpu completed
system.cpu.numWorkItemsStarted                      0                       # number of work items this cpu started
system.cpu.op_class_0::No_OpClass                   0      0.00%      0.00% # Class of committed instruction
system.cpu.op_class_0::IntAlu                48066702     47.66%     47.66% # Class of committed instruction
system.cpu.op_class_0::IntMult                 194948      0.19%     47.86% # Class of committed instruction
system.cpu.op_class_0::IntDiv                  120929      0.12%     47.98% # Class of committed instruction
system.cpu.op_class_0::FloatAdd                     0      0.00%     47.98% # Class of committed instruction
system.cpu.op_class_0::FloatCmp                     0      0.00%     47.98% # Class of committed instruction
system.cpu.op_class_0::FloatCvt                     0      0.00%     47.98% # Class of committed instruction
system.cpu.op_class_0::FloatMult                    0      0.00%     47.98% # Class of committed instruction
system.cpu.op_class_0::FloatMultAcc                 0      0.00%     47.98% # Class of committed instruction
system.cpu.op_class_0::FloatDiv                     0      0.00%     47.98% # Class of committed instruction
system.cpu.op_class_0::FloatMisc                    0      0.00%     47.98% # Class of committed instruction
system.cpu.op_class_0::FloatSqrt                    0      0.00%     47.98% # Class of committed instruction
system.cpu.op_class_0::SimdAdd                      0      0.00%     47.98% # Class of committed instruction
system.cpu.op_class_0::SimdAddAcc                   0      0.00%     47.98% # Class of committed instruction
system.cpu.op_class_0::SimdAlu                      0      0.00%     47.98% # Class of committed instruction
system.cpu.op_class_0::SimdCmp                      0      0.00%     47.98% # Class of committed instruction
system.cpu.op_class_0::SimdCvt                      0      0.00%     47.98% # Class of committed instruction
system.cpu.op_class_0::SimdMisc                     0      0.00%     47.98% # Class of committed instruction
system.cpu.op_class_0::SimdMult                     0      0.00%     47.98% # Class of committed instruction
system.cpu.op_class_0::SimdMultAcc                  0      0.00%     47.98% # Class of committed instruction
system.cpu.op_class_0::SimdShift                    0      0.00%     47.98% # Class of committed instruction
system.cpu.op_class_0::SimdShiftAcc                 0      0.00%     47.98% # Class of committed instruction
system.cpu.op_class_0::SimdDiv                      0      0.00%     47.98% # Class of committed instruction
system.cpu.op_class_0::SimdSqrt                     0      0.00%     47.98% # Class of committed instruction
system.cpu.op_class_0::SimdFloatAdd            329025      0.33%     48.30% # Class of committed instruction
system.cpu.op_class_0::SimdFloatAlu                 0      0.00%     48.30% # Class of committed instruction
system.cpu.op_class_0::SimdFloatCmp            312189      0.31%     48.61% # Class of committed instruction
system.cpu.op_class_0::SimdFloatCvt            190940      0.19%     48.80% # Class of committed instruction
system.cpu.op_class_0::SimdFloatDiv             63386      0.06%     48.86% # Class of committed instruction
system.cpu.op_class_0::SimdFloatMisc           554902      0.55%     49.41% # Class of committed instruction
system.cpu.op_class_0::SimdFloatMult            41940      0.04%     49.45% # Class of committed instruction
system.cpu.op_class_0::SimdFloatMultAcc         10949      0.01%     49.47% # Class of committed instruction
system.cpu.op_class_0::SimdFloatSqrt                0      0.00%     49.47% # Class of committed instruction
system.cpu.op_class_0::SimdReduceAdd                0      0.00%     49.47% # Class of committed instruction
system.cpu.op_class_0::SimdReduceAlu                0      0.00%     49.47% # Class of committed instruction
system.cpu.op_class_0::SimdReduceCmp                0      0.00%     49.47% # Class of committed instruction
system.cpu.op_class_0::SimdFloatReduceAdd            0      0.00%     49.47% # Class of committed instruction
system.cpu.op_class_0::SimdFloatReduceCmp            0      0.00%     49.47% # Class of committed instruction
system.cpu.op_class_0::SimdAes                      0      0.00%     49.47% # Class of committed instruction
system.cpu.op_class_0::SimdAesMix                   0      0.00%     49.47% # Class of committed instruction
system.cpu.op_class_0::SimdSha1Hash                 0      0.00%     49.47% # Class of committed instruction
system.cpu.op_class_0::SimdSha1Hash2                0      0.00%     49.47% # Class of committed instruction
system.cpu.op_class_0::SimdSha256Hash               0      0.00%     49.47% # Class of committed instruction
system.cpu.op_class_0::SimdSha256Hash2              0      0.00%     49.47% # Class of committed instruction
system.cpu.op_class_0::SimdShaSigma2                0      0.00%     49.47% # Class of committed instruction
system.cpu.op_class_0::SimdShaSigma3                0      0.00%     49.47% # Class of committed instruction
system.cpu.op_class_0::SimdPredAlu                  0      0.00%     49.47% # Class of committed instruction
system.cpu.op_class_0::MemRead               43775341     43.41%     92.87% # Class of committed instruction
system.cpu.op_class_0::MemWrite               7188237      7.13%    100.00% # Class of committed instruction
system.cpu.op_class_0::FloatMemRead                 0      0.00%    100.00% # Class of committed instruction
system.cpu.op_class_0::FloatMemWrite                0      0.00%    100.00% # Class of committed instruction
system.cpu.op_class_0::IprAccess                    0      0.00%    100.00% # Class of committed instruction
system.cpu.op_class_0::InstPrefetch                 0      0.00%    100.00% # Class of committed instruction
system.cpu.op_class_0::total                100849488                       # Class of committed instruction
system.cpu.tickCycles                       123134021                       # Number of cycles that the object actually ticked
system.cpu.workload.numSyscalls                    32                       # Number of system calls
system.membus.snoop_filter.hit_multi_requests            0                       # Number of requests hitting in the snoop filter with multiple (>1) holders of the requested data.
system.membus.snoop_filter.hit_multi_snoops            0                       # Number of snoops hitting in the snoop filter with multiple (>1) holders of the requested data.
system.membus.snoop_filter.hit_single_requests            0                       # Number of requests hitting in the snoop filter with a single holder of the requested data.
system.membus.snoop_filter.hit_single_snoops            0                       # Number of snoops hitting in the snoop filter with a single holder of the requested data.
system.membus.snoop_filter.tot_requests          6044                       # Total number of requests made to the snoop filter.
system.membus.snoop_filter.tot_snoops               0                       # Total number of snoops made to the snoop filter.
system.tol2bus.snoop_filter.hit_multi_requests          341                       # Number of requests hitting in the snoop filter with multiple (>1) holders of the requested data.
system.tol2bus.snoop_filter.hit_multi_snoops            0                       # Number of snoops hitting in the snoop filter with multiple (>1) holders of the requested data.
system.tol2bus.snoop_filter.hit_single_requests        78549                       # Number of requests hitting in the snoop filter with a single holder of the requested data.
system.tol2bus.snoop_filter.hit_single_snoops            0                       # Number of snoops hitting in the snoop filter with a single holder of the requested data.
system.tol2bus.snoop_filter.tot_requests       158622                       # Total number of requests made to the snoop filter.
system.tol2bus.snoop_filter.tot_snoops              0                       # Total number of snoops made to the snoop filter.
system.clk_domain.clock                          1000                       # Clock period in ticks
system.cpu.branchPred.lookups                 6678188                       # Number of BP lookups
system.cpu.branchPred.condPredicted           5512458                       # Number of conditional branches predicted
system.cpu.branchPred.condIncorrect            364286                       # Number of conditional branches incorrect
system.cpu.branchPred.BTBLookups              4626733                       # Number of BTB lookups
system.cpu.branchPred.BTBHits                 4620642                       # Number of BTB hits
system.cpu.branchPred.BTBHitPct             99.868352                       # BTB Hit Percentage
system.cpu.branchPred.RASUsed                  188737                       # Number of times the RAS was used to get a target.
system.cpu.branchPred.RASIncorrect                219                       # Number of incorrect RAS predictions.
system.cpu.branchPred.indirectLookups          672836                       # Number of indirect predictor lookups.
system.cpu.branchPred.indirectHits                159                       # Number of indirect target hits.
system.cpu.branchPred.indirectMisses           672677                       # Number of indirect misses.
system.cpu.branchPred.indirectMispredicted          187                       # Number of mispredicted indirect branches.
system.cpu.dcache.demand_hits::.cpu.data     49982571                       # number of demand (read+write) hits
system.cpu.dcache.demand_hits::total         49982571                       # number of demand (read+write) hits
system.cpu.dcache.overall_hits::.cpu.data     49992583                       # number of overall hits
system.cpu.dcache.overall_hits::total        49992583                       # number of overall hits
system.cpu.dcache.demand_misses::.cpu.data        80380                       # number of demand (read+write) misses
system.cpu.dcache.demand_misses::total          80380                       # number of demand (read+write) misses
system.cpu.dcache.overall_misses::.cpu.data        80537                       # number of overall misses
system.cpu.dcache.overall_misses::total         80537                       # number of overall misses
system.cpu.dcache.demand_miss_latency::.cpu.data   2591326000                       # number of demand (read+write) miss cycles
system.cpu.dcache.demand_miss_latency::total   2591326000                       # number of demand (read+write) miss cycles
system.cpu.dcache.overall_miss_latency::.cpu.data   2591326000                       # number of overall miss cycles
system.cpu.dcache.overall_miss_latency::total   2591326000                       # number of overall miss cycles
system.cpu.dcache.demand_accesses::.cpu.data     50062951                       # number of demand (read+write) accesses
system.cpu.dcache.demand_accesses::total     50062951                       # number of demand (read+write) accesses
system.cpu.dcache.overall_accesses::.cpu.data     50073120                       # number of overall (read+write) accesses
system.cpu.dcache.overall_accesses::total     50073120                       # number of overall (read+write) accesses
system.cpu.dcache.demand_miss_rate::.cpu.data     0.001606                       # miss rate for demand accesses
system.cpu.dcache.demand_miss_rate::total     0.001606                       # miss rate for demand accesses
system.cpu.dcache.overall_miss_rate::.cpu.data     0.001608                       # miss rate for overall accesses
system.cpu.dcache.overall_miss_rate::total     0.001608                       # miss rate for overall accesses
system.cpu.dcache.demand_avg_miss_latency::.cpu.data 32238.442399                       # average overall miss latency
system.cpu.dcache.demand_avg_miss_latency::total 32238.442399                       # average overall miss latency
system.cpu.dcache.overall_avg_miss_latency::.cpu.data 32175.596310                       # average overall miss latency
system.cpu.dcache.overall_avg_miss_latency::total 32175.596310                       # average overall miss latency
system.cpu.dcache.blocked_cycles::no_mshrs          323                       # number of cycles access was blocked
system.cpu.dcache.blocked_cycles::no_targets            0                       # number of cycles access was blocked
system.cpu.dcache.blocked::no_mshrs                 5                       # number of cycles access was blocked
system.cpu.dcache.blocked::no_targets               0                       # number of cycles access was blocked
system.cpu.dcache.avg_blocked_cycles::no_mshrs    64.600000                       # average number of cycles each access was blocked
system.cpu.dcache.avg_blocked_cycles::no_targets          nan                       # average number of cycles each access was blocked
system.cpu.dcache.writebacks::.writebacks        73099                       # number of writebacks
system.cpu.dcache.writebacks::total             73099                       # number of writebacks
system.cpu.dcache.demand_mshr_hits::.cpu.data         4978                       # number of demand (read+write) MSHR hits
system.cpu.dcache.demand_mshr_hits::total         4978                       # number of demand (read+write) MSHR hits
system.cpu.dcache.overall_mshr_hits::.cpu.data         4978                       # number of overall MSHR hits
system.cpu.dcache.overall_mshr_hits::total         4978                       # number of overall MSHR hits
system.cpu.dcache.demand_mshr_misses::.cpu.data        75402                       # number of demand (read+write) MSHR misses
system.cpu.dcache.demand_mshr_misses::total        75402                       # number of demand (read+write) MSHR misses
system.cpu.dcache.overall_mshr_misses::.cpu.data        75551                       # number of overall MSHR misses
system.cpu.dcache.overall_mshr_misses::total        75551                       # number of overall MSHR misses
system.cpu.dcache.demand_mshr_miss_latency::.cpu.data   2163709000                       # number of demand (read+write) MSHR miss cycles
system.cpu.dcache.demand_mshr_miss_latency::total   2163709000                       # number of demand (read+write) MSHR miss cycles
system.cpu.dcache.overall_mshr_miss_latency::.cpu.data   2173783000                       # number of overall MSHR miss cycles
system.cpu.dcache.overall_mshr_miss_latency::total   2173783000                       # number of overall MSHR miss cycles
system.cpu.dcache.demand_mshr_miss_rate::.cpu.data     0.001506                       # mshr miss rate for demand accesses
system.cpu.dcache.demand_mshr_miss_rate::total     0.001506                       # mshr miss rate for demand accesses
system.cpu.dcache.overall_mshr_miss_rate::.cpu.data     0.001509                       # mshr miss rate for overall accesses
system.cpu.dcache.overall_mshr_miss_rate::total     0.001509                       # mshr miss rate for overall accesses
system.cpu.dcache.demand_avg_mshr_miss_latency::.cpu.data 28695.644678                       # average overall mshr miss latency
system.cpu.dcache.demand_avg_mshr_miss_latency::total 28695.644678                       # average overall mshr miss latency
system.cpu.dcache.overall_avg_mshr_miss_latency::.cpu.data 28772.392159                       # average overall mshr miss latency
system.cpu.dcache.overall_avg_mshr_miss_latency::total 28772.392159                       # average overall mshr miss latency
system.cpu.dcache.replacements                  74585                       # number of replacements
system.cpu.dcache.ReadReq_hits::.cpu.data     42920840                       # number of ReadReq hits
system.cpu.dcache.ReadReq_hits::total        42920840                       # number of ReadReq hits
system.cpu.dcache.ReadReq_misses::.cpu.data        15572                       # number of ReadReq misses
system.cpu.dcache.ReadReq_misses::total         15572                       # number of ReadReq misses
system.cpu.dcache.ReadReq_miss_latency::.cpu.data    477546000                       # number of ReadReq miss cycles
system.cpu.dcache.ReadReq_miss_latency::total    477546000                       # number of ReadReq miss cycles
system.cpu.dcache.ReadReq_accesses::.cpu.data     42936412                       # number of ReadReq accesses(hits+misses)
system.cpu.dcache.ReadReq_accesses::total     42936412                       # number of ReadReq accesses(hits+misses)
system.cpu.dcache.ReadReq_miss_rate::.cpu.data     0.000363                       # miss rate for ReadReq accesses
system.cpu.dcache.ReadReq_miss_rate::total     0.000363                       # miss rate for ReadReq accesses
system.cpu.dcache.ReadReq_avg_miss_latency::.cpu.data 30666.966350                       # average ReadReq miss latency
system.cpu.dcache.ReadReq_avg_miss_latency::total 30666.966350                       # average ReadReq miss latency
system.cpu.dcache.ReadReq_mshr_hits::.cpu.data           39                       # number of ReadReq MSHR hits
system.cpu.dcache.ReadReq_mshr_hits::total           39                       # number of ReadReq MSHR hits
system.cpu.dcache.ReadReq_mshr_misses::.cpu.data        15533                       # number of ReadReq MSHR misses
system.cpu.dcache.ReadReq_mshr_misses::total        15533                       # number of ReadReq MSHR misses
system.cpu.dcache.ReadReq_mshr_miss_latency::.cpu.data    443815000                       # number of ReadReq MSHR miss cycles
system.cpu.dcache.ReadReq_mshr_miss_latency::total    443815000                       # number of ReadReq MSHR miss cycles
system.cpu.dcache.ReadReq_mshr_miss_rate::.cpu.data     0.000362                       # mshr miss rate for ReadReq accesses
system.cpu.dcache.ReadReq_mshr_miss_rate::total     0.000362                       # mshr miss rate for ReadReq accesses
system.cpu.dcache.ReadReq_avg_mshr_miss_latency::.cpu.data 28572.394257                       # average ReadReq mshr miss latency
system.cpu.dcache.ReadReq_avg_mshr_miss_latency::total 28572.394257                       # average ReadReq mshr miss latency
system.cpu.dcache.WriteReq_hits::.cpu.data      7061731                       # number of WriteReq hits
system.cpu.dcache.WriteReq_hits::total        7061731                       # number of WriteReq hits
system.cpu.dcache.WriteReq_misses::.cpu.data        64808                       # number of WriteReq misses
system.cpu.dcache.WriteReq_misses::total        64808                       # number of WriteReq misses
system.cpu.dcache.WriteReq_miss_latency::.cpu.data   2113780000                       # number of WriteReq miss cycles
system.cpu.dcache.WriteReq_miss_latency::total   2113780000                       # number of WriteReq miss cycles
system.cpu.dcache.WriteReq_accesses::.cpu.data      7126539                       # number of WriteReq accesses(hits+misses)
system.cpu.dcache.WriteReq_accesses::total      7126539                       # number of WriteReq accesses(hits+misses)
system.cpu.dcache.WriteReq_miss_rate::.cpu.data     0.009094                       # miss rate for WriteReq accesses
system.cpu.dcache.WriteReq_miss_rate::total     0.009094                       # miss rate for WriteReq accesses
system.cpu.dcache.WriteReq_avg_miss_latency::.cpu.data 32616.035057                       # average WriteReq miss latency
system.cpu.dcache.WriteReq_avg_miss_latency::total 32616.035057                       # average WriteReq miss latency
system.cpu.dcache.WriteReq_mshr_hits::.cpu.data         4939                       # number of WriteReq MSHR hits
system.cpu.dcache.WriteReq_mshr_hits::total         4939                       # number of WriteReq MSHR hits
system.cpu.dcache.WriteReq_mshr_misses::.cpu.data        59869                       # number of WriteReq MSHR misses
system.cpu.dcache.WriteReq_mshr_misses::total        59869                       # number of WriteReq MSHR misses
system.cpu.dcache.WriteReq_mshr_miss_latency::.cpu.data   1719894000                       # number of WriteReq MSHR miss cycles
system.cpu.dcache.WriteReq_mshr_miss_latency::total   1719894000                       # number of WriteReq MSHR miss cycles
system.cpu.dcache.WriteReq_mshr_miss_rate::.cpu.data     0.008401                       # mshr miss rate for WriteReq accesses
system.cpu.dcache.WriteReq_mshr_miss_rate::total     0.008401                       # mshr miss rate for WriteReq accesses
system.cpu.dcache.WriteReq_avg_mshr_miss_latency::.cpu.data 28727.621975                       # average WriteReq mshr miss latency
system.cpu.dcache.WriteReq_avg_mshr_miss_latency::total 28727.621975                       # average WriteReq mshr miss latency
system.cpu.dcache.SoftPFReq_hits::.cpu.data        10012                       # number of SoftPFReq hits
system.cpu.dcache.SoftPFReq_hits::total         10012                       # number of SoftPFReq hits
system.cpu.dcache.SoftPFReq_misses::.cpu.data          157                       # number of SoftPFReq misses
system.cpu.dcache.SoftPFReq_misses::total          157                       # number of SoftPFReq misses
system.cpu.dcache.SoftPFReq_accesses::.cpu.data        10169                       # number of SoftPFReq accesses(hits+misses)
system.cpu.dcache.SoftPFReq_accesses::total        10169                       # number of SoftPFReq accesses(hits+misses)
system.cpu.dcache.SoftPFReq_miss_rate::.cpu.data     0.015439                       # miss rate for SoftPFReq accesses
system.cpu.dcache.SoftPFReq_miss_rate::total     0.015439                       # miss rate for SoftPFReq accesses
system.cpu.dcache.SoftPFReq_mshr_misses::.cpu.data          149                       # number of SoftPFReq MSHR misses
system.cpu.dcache.SoftPFReq_mshr_misses::total          149                       # number of SoftPFReq MSHR misses
system.cpu.dcache.SoftPFReq_mshr_miss_latency::.cpu.data     10074000                       # number of SoftPFReq MSHR miss cycles
system.cpu.dcache.SoftPFReq_mshr_miss_latency::total     10074000                       # number of SoftPFReq MSHR miss cycles
system.cpu.dcache.SoftPFReq_mshr_miss_rate::.cpu.data     0.014652                       # mshr miss rate for SoftPFReq accesses
system.cpu.dcache.SoftPFReq_mshr_miss_rate::total     0.014652                       # mshr miss rate for SoftPFReq accesses
system.cpu.dcache.SoftPFReq_avg_mshr_miss_latency::.cpu.data 67610.738255                       # average SoftPFReq mshr miss latency
system.cpu.dcache.SoftPFReq_avg_mshr_miss_latency::total 67610.738255                       # average SoftPFReq mshr miss latency
system.cpu.dcache.LoadLockedReq_hits::.cpu.data         1115                       # number of LoadLockedReq hits
system.cpu.dcache.LoadLockedReq_hits::total         1115                       # number of LoadLockedReq hits
system.cpu.dcache.LoadLockedReq_misses::.cpu.data           58                       # number of LoadLockedReq misses
system.cpu.dcache.LoadLockedReq_misses::total           58                       # number of LoadLockedReq misses
system.cpu.dcache.LoadLockedReq_miss_latency::.cpu.data      1591000                       # number of LoadLockedReq miss cycles
system.cpu.dcache.LoadLockedReq_miss_latency::total      1591000                       # number of LoadLockedReq miss cycles
system.cpu.dcache.LoadLockedReq_accesses::.cpu.data         1173                       # number of LoadLockedReq accesses(hits+misses)
system.cpu.dcache.LoadLockedReq_accesses::total         1173                       # number of LoadLockedReq accesses(hits+misses)
system.cpu.dcache.LoadLockedReq_miss_rate::.cpu.data     0.049446                       # miss rate for LoadLockedReq accesses
system.cpu.dcache.LoadLockedReq_miss_rate::total     0.049446                       # miss rate for LoadLockedReq accesses
system.cpu.dcache.LoadLockedReq_avg_miss_latency::.cpu.data 27431.034483                       # average LoadLockedReq miss latency
system.cpu.dcache.LoadLockedReq_avg_miss_latency::total 27431.034483                       # average LoadLockedReq miss latency
system.cpu.dcache.LoadLockedReq_mshr_misses::.cpu.data           58                       # number of LoadLockedReq MSHR misses
system.cpu.dcache.LoadLockedReq_mshr_misses::total           58                       # number of LoadLockedReq MSHR misses
system.cpu.dcache.LoadLockedReq_mshr_miss_latency::.cpu.data      1475000                       # number of LoadLockedReq MSHR miss cycles
system.cpu.dcache.LoadLockedReq_mshr_miss_latency::total      1475000                       # number of LoadLockedReq MSHR miss cycles
system.cpu.dcache.LoadLockedReq_mshr_miss_rate::.cpu.data     0.049446                       # mshr miss rate for LoadLockedReq accesses
system.cpu.dcache.LoadLockedReq_mshr_miss_rate::total     0.049446                       # mshr miss rate for LoadLockedReq accesses
system.cpu.dcache.LoadLockedReq_avg_mshr_miss_latency::.cpu.data 25431.034483                       # average LoadLockedReq mshr miss latency
system.cpu.dcache.LoadLockedReq_avg_mshr_miss_latency::total 25431.034483                       # average LoadLockedReq mshr miss latency
system.cpu.dcache.StoreCondReq_hits::.cpu.data         1173                       # number of StoreCondReq hits
system.cpu.dcache.StoreCondReq_hits::total         1173                       # number of StoreCondReq hits
system.cpu.dcache.StoreCondReq_accesses::.cpu.data         1173                       # number of StoreCondReq accesses(hits+misses)
system.cpu.dcache.StoreCondReq_accesses::total         1173                       # number of StoreCondReq accesses(hits+misses)
system.cpu.dcache.power_state.pwrStateResidencyTicks::UNDEFINED 126441259000                       # Cumulative time (in ticks) in various power states
system.cpu.dcache.tags.tagsinuse          1015.721199                       # Cycle average of tags in use
system.cpu.dcache.tags.total_refs            50070480                       # Total number of references to valid blocks.
system.cpu.dcache.tags.sampled_refs             75609                       # Sample count of references to valid blocks.
system.cpu.dcache.tags.avg_refs            662.229100                       # Average number of references to valid blocks.
system.cpu.dcache.tags.warmup_cycle            223000                       # Cycle when the warmup percentage was hit.
system.cpu.dcache.tags.occ_blocks::.cpu.data  1015.721199                       # Average occupied blocks per requestor
system.cpu.dcache.tags.occ_percent::.cpu.data     0.991915                       # Average percentage of cache occupancy
system.cpu.dcache.tags.occ_percent::total     0.991915                       # Average percentage of cache occupancy
system.cpu.dcache.tags.occ_task_id_blocks::1024         1024                       # Occupied blocks per task id
system.cpu.dcache.tags.age_task_id_blocks_1024::0            4                       # Occupied blocks per task id
system.cpu.dcache.tags.age_task_id_blocks_1024::1           17                       # Occupied blocks per task id
system.cpu.dcache.tags.age_task_id_blocks_1024::2          390                       # Occupied blocks per task id
system.cpu.dcache.tags.age_task_id_blocks_1024::3          525                       # Occupied blocks per task id
system.cpu.dcache.tags.age_task_id_blocks_1024::4           88                       # Occupied blocks per task id
system.cpu.dcache.tags.occ_task_id_percent::1024            1                       # Percentage of cache occupancy per task id
system.cpu.dcache.tags.tag_accesses         100226541                       # Number of tag accesses
system.cpu.dcache.tags.data_accesses        100226541                       # Number of data accesses
system.cpu.dcache.tags.power_state.pwrStateResidencyTicks::UNDEFINED 126441259000                       # Cumulative time (in ticks) in various power states
system.cpu.dtb.instHits                             0                       # ITB inst hits
system.cpu.dtb.instMisses                           0                       # ITB inst misses
system.cpu.dtb.readHits                             0                       # DTB read hits
system.cpu.dtb.readMisses                           0                       # DTB read misses
system.cpu.dtb.writeHits                            0                       # DTB write hits
system.cpu.dtb.writeMisses                          0                       # DTB write misses
system.cpu.dtb.inserts                              0                       # Number of times an entry is inserted into the TLB
system.cpu.dtb.flushTlb                             0                       # Number of times complete TLB was flushed
system.cpu.dtb.flushTlbMva                          0                       # Number of times TLB was flushed by MVA
system.cpu.dtb.flushTlbMvaAsid                      0                       # Number of times TLB was flushed by MVA & ASID
system.cpu.dtb.flushTlbAsid                         0                       # Number of times TLB was flushed by ASID
system.cpu.dtb.flushedEntries                       0                       # Number of entries that have been flushed from TLB
system.cpu.dtb.alignFaults                          0                       # Number of TLB faults due to alignment restrictions
system.cpu.dtb.prefetchFaults                       0                       # Number of TLB faults due to prefetch
system.cpu.dtb.domainFaults                         0                       # Number of TLB faults due to domain restrictions
system.cpu.dtb.permsFaults                          0                       # Number of TLB faults due to permissions restrictions
system.cpu.dtb.readAccesses                         0                       # DTB read accesses
system.cpu.dtb.writeAccesses                        0                       # DTB write accesses
system.cpu.dtb.instAccesses                         0                       # ITB inst accesses
system.cpu.dtb.hits                                 0                       # Total TLB (inst and data) hits
system.cpu.dtb.misses                               0                       # Total TLB (inst and data) misses
system.cpu.dtb.accesses                             0                       # Total TLB (inst and data) accesses
system.cpu.dtb.stage2_mmu.stage2_tlb.instHits            0                       # ITB inst hits
system.cpu.dtb.stage2_mmu.stage2_tlb.instMisses            0                       # ITB inst misses
system.cpu.dtb.stage2_mmu.stage2_tlb.readHits            0                       # DTB read hits
system.cpu.dtb.stage2_mmu.stage2_tlb.readMisses            0                       # DTB read misses
system.cpu.dtb.stage2_mmu.stage2_tlb.writeHits            0                       # DTB write hits
system.cpu.dtb.stage2_mmu.stage2_tlb.writeMisses            0                       # DTB write misses
system.cpu.dtb.stage2_mmu.stage2_tlb.inserts            0                       # Number of times an entry is inserted into the TLB
system.cpu.dtb.stage2_mmu.stage2_tlb.flushTlb            0                       # Number of times complete TLB was flushed
system.cpu.dtb.stage2_mmu.stage2_tlb.flushTlbMva            0                       # Number of times TLB was flushed by MVA
system.cpu.dtb.stage2_mmu.stage2_tlb.flushTlbMvaAsid            0                       # Number of times TLB was flushed by MVA & ASID
system.cpu.dtb.stage2_mmu.stage2_tlb.flushTlbAsid            0                       # Number of times TLB was flushed by ASID
system.cpu.dtb.stage2_mmu.stage2_tlb.flushedEntries            0                       # Number of entries that have been flushed from TLB
system.cpu.dtb.stage2_mmu.stage2_tlb.alignFaults            0                       # Number of TLB faults due to alignment restrictions
system.cpu.dtb.stage2_mmu.stage2_tlb.prefetchFaults            0                       # Number of TLB faults due to prefetch
system.cpu.dtb.stage2_mmu.stage2_tlb.domainFaults            0                       # Number of TLB faults due to domain restrictions
system.cpu.dtb.stage2_mmu.stage2_tlb.permsFaults            0                       # Number of TLB faults due to permissions restrictions
system.cpu.dtb.stage2_mmu.stage2_tlb.readAccesses            0                       # DTB read accesses
system.cpu.dtb.stage2_mmu.stage2_tlb.writeAccesses            0                       # DTB write accesses
system.cpu.dtb.stage2_mmu.stage2_tlb.instAccesses            0                       # ITB inst accesses
system.cpu.dtb.stage2_mmu.stage2_tlb.hits            0                       # Total TLB (inst and data) hits
system.cpu.dtb.stage2_mmu.stage2_tlb.misses            0                       # Total TLB (inst and data) misses
system.cpu.dtb.stage2_mmu.stage2_tlb.accesses            0                       # Total TLB (inst and data) accesses
system.cpu.dtb.stage2_mmu.stage2_tlb.walker.walks            0                       # Table walker walks requested
system.cpu.dtb.stage2_mmu.stage2_tlb.walker.requestOrigin_Requested::Data            0                       # Table walker requests started/completed, data/inst
system.cpu.dtb.stage2_mmu.stage2_tlb.walker.requestOrigin_Requested::Inst            0                       # Table walker requests started/completed, data/inst
system.cpu.dtb.stage2_mmu.stage2_tlb.walker.requestOrigin_Requested::total            0                       # Table walker requests started/completed, data/inst
system.cpu.dtb.stage2_mmu.stage2_tlb.walker.requestOrigin_Completed::Data            0                       # Table walker requests started/completed, data/inst
system.cpu.dtb.stage2_mmu.stage2_tlb.walker.requestOrigin_Completed::Inst            0                       # Table walker requests started/completed, data/inst
system.cpu.dtb.stage2_mmu.stage2_tlb.walker.requestOrigin_Completed::total            0                       # Table walker requests started/completed, data/inst
system.cpu.dtb.stage2_mmu.stage2_tlb.walker.requestOrigin::total            0                       # Table walker requests started/completed, data/inst
system.cpu.dtb.stage2_mmu.stage2_tlb.walker.power_state.pwrStateResidencyTicks::UNDEFINED 126441259000                       # Cumulative time (in ticks) in various power states
system.cpu.dtb.walker.walks                         0                       # Table walker walks requested
system.cpu.dtb.walker.requestOrigin_Requested::Data            0                       # Table walker requests started/completed, data/inst
system.cpu.dtb.walker.requestOrigin_Requested::Inst            0                       # Table walker requests started/completed, data/inst
system.cpu.dtb.walker.requestOrigin_Requested::total            0                       # Table walker requests started/completed, data/inst
system.cpu.dtb.walker.requestOrigin_Completed::Data            0                       # Table walker requests started/completed, data/inst
system.cpu.dtb.walker.requestOrigin_Completed::Inst            0                       # Table walker requests started/completed, data/inst
system.cpu.dtb.walker.requestOrigin_Completed::total            0                       # Table walker requests started/completed, data/inst
system.cpu.dtb.walker.requestOrigin::total            0                       # Table walker requests started/completed, data/inst
system.cpu.dtb.walker.power_state.pwrStateResidencyTicks::UNDEFINED 126441259000                       # Cumulative time (in ticks) in various power states
system.cpu.fetch2.intInstructions            45759563                       # Number of integer instructions successfully decoded
system.cpu.fetch2.fpInstructions                    0                       # Number of floating point instructions successfully decoded
system.cpu.fetch2.vecInstructions                   0                       # Number of SIMD instructions successfully decoded
system.cpu.fetch2.loadInstructions           46728010                       # Number of memory load instructions successfully decoded
system.cpu.fetch2.storeInstructions           7330491                       # Number of memory store instructions successfully decoded
system.cpu.fetch2.amoInstructions                   0                       # Number of memory atomic instructions successfully decoded
system.cpu.icache.demand_hits::.cpu.inst     19658999                       # number of demand (read+write) hits
system.cpu.icache.demand_hits::total         19658999                       # number of demand (read+write) hits
system.cpu.icache.overall_hits::.cpu.inst     19658999                       # number of overall hits
system.cpu.icache.overall_hits::total        19658999                       # number of overall hits
system.cpu.icache.demand_misses::.cpu.inst         4470                       # number of demand (read+write) misses
system.cpu.icache.demand_misses::total           4470                       # number of demand (read+write) misses
system.cpu.icache.overall_misses::.cpu.inst         4470                       # number of overall misses
system.cpu.icache.overall_misses::total          4470                       # number of overall misses
system.cpu.icache.demand_miss_latency::.cpu.inst    242784000                       # number of demand (read+write) miss cycles
system.cpu.icache.demand_miss_latency::total    242784000                       # number of demand (read+write) miss cycles
system.cpu.icache.overall_miss_latency::.cpu.inst    242784000                       # number of overall miss cycles
system.cpu.icache.overall_miss_latency::total    242784000                       # number of overall miss cycles
system.cpu.icache.demand_accesses::.cpu.inst     19663469                       # number of demand (read+write) accesses
system.cpu.icache.demand_accesses::total     19663469                       # number of demand (read+write) accesses
system.cpu.icache.overall_accesses::.cpu.inst     19663469                       # number of overall (read+write) accesses
system.cpu.icache.overall_accesses::total     19663469                       # number of overall (read+write) accesses
system.cpu.icache.demand_miss_rate::.cpu.inst     0.000227                       # miss rate for demand accesses
system.cpu.icache.demand_miss_rate::total     0.000227                       # miss rate for demand accesses
system.cpu.icache.overall_miss_rate::.cpu.inst     0.000227                       # miss rate for overall accesses
system.cpu.icache.overall_miss_rate::total     0.000227                       # miss rate for overall accesses
system.cpu.icache.demand_avg_miss_latency::.cpu.inst 54314.093960                       # average overall miss latency
system.cpu.icache.demand_avg_miss_latency::total 54314.093960                       # average overall miss latency
system.cpu.icache.overall_avg_miss_latency::.cpu.inst 54314.093960                       # average overall miss latency
system.cpu.icache.overall_avg_miss_latency::total 54314.093960                       # average overall miss latency
system.cpu.icache.blocked_cycles::no_mshrs            0                       # number of cycles access was blocked
system.cpu.icache.blocked_cycles::no_targets            0                       # number of cycles access was blocked
system.cpu.icache.blocked::no_mshrs                 0                       # number of cycles access was blocked
system.cpu.icache.blocked::no_targets               0                       # number of cycles access was blocked
system.cpu.icache.avg_blocked_cycles::no_mshrs          nan                       # average number of cycles each access was blocked
system.cpu.icache.avg_blocked_cycles::no_targets          nan                       # average number of cycles each access was blocked
system.cpu.icache.writebacks::.writebacks         3958                       # number of writebacks
system.cpu.icache.writebacks::total              3958                       # number of writebacks
system.cpu.icache.demand_mshr_misses::.cpu.inst         4470                       # number of demand (read+write) MSHR misses
system.cpu.icache.demand_mshr_misses::total         4470                       # number of demand (read+write) MSHR misses
system.cpu.icache.overall_mshr_misses::.cpu.inst         4470                       # number of overall MSHR misses
system.cpu.icache.overall_mshr_misses::total         4470                       # number of overall MSHR misses
system.cpu.icache.demand_mshr_miss_latency::.cpu.inst    233844000                       # number of demand (read+write) MSHR miss cycles
system.cpu.icache.demand_mshr_miss_latency::total    233844000                       # number of demand (read+write) MSHR miss cycles
system.cpu.icache.overall_mshr_miss_latency::.cpu.inst    233844000                       # number of overall MSHR miss cycles
system.cpu.icache.overall_mshr_miss_latency::total    233844000                       # number of overall MSHR miss cycles
system.cpu.icache.demand_mshr_miss_rate::.cpu.inst     0.000227                       # mshr miss rate for demand accesses
system.cpu.icache.demand_mshr_miss_rate::total     0.000227                       # mshr miss rate for demand accesses
system.cpu.icache.overall_mshr_miss_rate::.cpu.inst     0.000227                       # mshr miss rate for overall accesses
system.cpu.icache.overall_mshr_miss_rate::total     0.000227                       # mshr miss rate for overall accesses
system.cpu.icache.demand_avg_mshr_miss_latency::.cpu.inst 52314.093960                       # average overall mshr miss latency
system.cpu.icache.demand_avg_mshr_miss_latency::total 52314.093960                       # average overall mshr miss latency
system.cpu.icache.overall_avg_mshr_miss_latency::.cpu.inst 52314.093960                       # average overall mshr miss latency
system.cpu.icache.overall_avg_mshr_miss_latency::total 52314.093960                       # average overall mshr miss latency
system.cpu.icache.replacements                   3958                       # number of replacements
system.cpu.icache.ReadReq_hits::.cpu.inst     19658999                       # number of ReadReq hits
system.cpu.icache.ReadReq_hits::total        19658999                       # number of ReadReq hits
system.cpu.icache.ReadReq_misses::.cpu.inst         4470                       # number of ReadReq misses
system.cpu.icache.ReadReq_misses::total          4470                       # number of ReadReq misses
system.cpu.icache.ReadReq_miss_latency::.cpu.inst    242784000                       # number of ReadReq miss cycles
system.cpu.icache.ReadReq_miss_latency::total    242784000                       # number of ReadReq miss cycles
system.cpu.icache.ReadReq_accesses::.cpu.inst     19663469                       # number of ReadReq accesses(hits+misses)
system.cpu.icache.ReadReq_accesses::total     19663469                       # number of ReadReq accesses(hits+misses)
system.cpu.icache.ReadReq_miss_rate::.cpu.inst     0.000227                       # miss rate for ReadReq accesses
system.cpu.icache.ReadReq_miss_rate::total     0.000227                       # miss rate for ReadReq accesses
system.cpu.icache.ReadReq_avg_miss_latency::.cpu.inst 54314.093960                       # average ReadReq miss latency
system.cpu.icache.ReadReq_avg_miss_latency::total 54314.093960                       # average ReadReq miss latency
system.cpu.icache.ReadReq_mshr_misses::.cpu.inst         4470                       # number of ReadReq MSHR misses
system.cpu.icache.ReadReq_mshr_misses::total         4470                       # number of ReadReq MSHR misses
system.cpu.icache.ReadReq_mshr_miss_latency::.cpu.inst    233844000                       # number of ReadReq MSHR miss cycles
system.cpu.icache.ReadReq_mshr_miss_latency::total    233844000                       # number of ReadReq MSHR miss cycles
system.cpu.icache.ReadReq_mshr_miss_rate::.cpu.inst     0.000227                       # mshr miss rate for ReadReq accesses
system.cpu.icache.ReadReq_mshr_miss_rate::total     0.000227                       # mshr miss rate for ReadReq accesses
system.cpu.icache.ReadReq_avg_mshr_miss_latency::.cpu.inst 52314.093960                       # average ReadReq mshr miss latency
system.cpu.icache.ReadReq_avg_mshr_miss_latency::total 52314.093960                       # average ReadReq mshr miss latency
system.cpu.icache.power_state.pwrStateResidencyTicks::UNDEFINED 126441259000                       # Cumulative time (in ticks) in various power states
system.cpu.icache.tags.tagsinuse           511.784385                       # Cycle average of tags in use
system.cpu.icache.tags.total_refs            19663469                       # Total number of references to valid blocks.
system.cpu.icache.tags.sampled_refs              4470                       # Sample count of references to valid blocks.
system.cpu.icache.tags.avg_refs           4398.986353                       # Average number of references to valid blocks.
system.cpu.icache.tags.warmup_cycle            108000                       # Cycle when the warmup percentage was hit.
system.cpu.icache.tags.occ_blocks::.cpu.inst   511.784385                       # Average occupied blocks per requestor
system.cpu.icache.tags.occ_percent::.cpu.inst     0.999579                       # Average percentage of cache occupancy
system.cpu.icache.tags.occ_percent::total     0.999579                       # Average percentage of cache occupancy
system.cpu.icache.tags.occ_task_id_blocks::1024          512                       # Occupied blocks per task id
system.cpu.icache.tags.age_task_id_blocks_1024::2           10                       # Occupied blocks per task id
system.cpu.icache.tags.age_task_id_blocks_1024::4          502                       # Occupied blocks per task id
system.cpu.icache.tags.occ_task_id_percent::1024            1                       # Percentage of cache occupancy per task id
system.cpu.icache.tags.tag_accesses          39331408                       # Number of tag accesses
system.cpu.icache.tags.data_accesses         39331408                       # Number of data accesses
system.cpu.icache.tags.power_state.pwrStateResidencyTicks::UNDEFINED 126441259000                       # Cumulative time (in ticks) in various power states
system.cpu.itb.instHits                             0                       # ITB inst hits
system.cpu.itb.instMisses                           0                       # ITB inst misses
system.cpu.itb.readHits                             0                       # DTB read hits
system.cpu.itb.readMisses                           0                       # DTB read misses
system.cpu.itb.writeHits                            0                       # DTB write hits
system.cpu.itb.writeMisses                          0                       # DTB write misses
system.cpu.itb.inserts                              0                       # Number of times an entry is inserted into the TLB
system.cpu.itb.flushTlb                             0                       # Number of times complete TLB was flushed
system.cpu.itb.flushTlbMva                          0                       # Number of times TLB was flushed by MVA
system.cpu.itb.flushTlbMvaAsid                      0                       # Number of times TLB was flushed by MVA & ASID
system.cpu.itb.flushTlbAsid                         0                       # Number of times TLB was flushed by ASID
system.cpu.itb.flushedEntries                       0                       # Number of entries that have been flushed from TLB
system.cpu.itb.alignFaults                          0                       # Number of TLB faults due to alignment restrictions
system.cpu.itb.prefetchFaults                       0                       # Number of TLB faults due to prefetch
system.cpu.itb.domainFaults                         0                       # Number of TLB faults due to domain restrictions
system.cpu.itb.permsFaults                          0                       # Number of TLB faults due to permissions restrictions
system.cpu.itb.readAccesses                         0                       # DTB read accesses
system.cpu.itb.writeAccesses                        0                       # DTB write accesses
system.cpu.itb.instAccesses                         0                       # ITB inst accesses
system.cpu.itb.hits                                 0                       # Total TLB (inst and data) hits
system.cpu.itb.misses                               0                       # Total TLB (inst and data) misses
system.cpu.itb.accesses                             0                       # Total TLB (inst and data) accesses
system.cpu.itb.stage2_mmu.stage2_tlb.instHits            0                       # ITB inst hits
system.cpu.itb.stage2_mmu.stage2_tlb.instMisses            0                       # ITB inst misses
system.cpu.itb.stage2_mmu.stage2_tlb.readHits            0                       # DTB read hits
system.cpu.itb.stage2_mmu.stage2_tlb.readMisses            0                       # DTB read misses
system.cpu.itb.stage2_mmu.stage2_tlb.writeHits            0                       # DTB write hits
system.cpu.itb.stage2_mmu.stage2_tlb.writeMisses            0                       # DTB write misses
system.cpu.itb.stage2_mmu.stage2_tlb.inserts            0                       # Number of times an entry is inserted into the TLB
system.cpu.itb.stage2_mmu.stage2_tlb.flushTlb            0                       # Number of times complete TLB was flushed
system.cpu.itb.stage2_mmu.stage2_tlb.flushTlbMva            0                       # Number of times TLB was flushed by MVA
system.cpu.itb.stage2_mmu.stage2_tlb.flushTlbMvaAsid            0                       # Number of times TLB was flushed by MVA & ASID
system.cpu.itb.stage2_mmu.stage2_tlb.flushTlbAsid            0                       # Number of times TLB was flushed by ASID
system.cpu.itb.stage2_mmu.stage2_tlb.flushedEntries            0                       # Number of entries that have been flushed from TLB
system.cpu.itb.stage2_mmu.stage2_tlb.alignFaults            0                       # Number of TLB faults due to alignment restrictions
system.cpu.itb.stage2_mmu.stage2_tlb.prefetchFaults            0                       # Number of TLB faults due to prefetch
system.cpu.itb.stage2_mmu.stage2_tlb.domainFaults            0                       # Number of TLB faults due to domain restrictions
system.cpu.itb.stage2_mmu.stage2_tlb.permsFaults            0                       # Number of TLB faults due to permissions restrictions
system.cpu.itb.stage2_mmu.stage2_tlb.readAccesses            0                       # DTB read accesses
system.cpu.itb.stage2_mmu.stage2_tlb.writeAccesses            0                       # DTB write accesses
system.cpu.itb.stage2_mmu.stage2_tlb.instAccesses            0                       # ITB inst accesses
system.cpu.itb.stage2_mmu.stage2_tlb.hits            0                       # Total TLB (inst and data) hits
system.cpu.itb.stage2_mmu.stage2_tlb.misses            0                       # Total TLB (inst and data) misses
system.cpu.itb.stage2_mmu.stage2_tlb.accesses            0                       # Total TLB (inst and data) accesses
system.cpu.itb.stage2_mmu.stage2_tlb.walker.walks            0                       # Table walker walks requested
system.cpu.itb.stage2_mmu.stage2_tlb.walker.requestOrigin_Requested::Data            0                       # Table walker requests started/completed, data/inst
system.cpu.itb.stage2_mmu.stage2_tlb.walker.requestOrigin_Requested::Inst            0                       # Table walker requests started/completed, data/inst
system.cpu.itb.stage2_mmu.stage2_tlb.walker.requestOrigin_Requested::total            0                       # Table walker requests started/completed, data/inst
system.cpu.itb.stage2_mmu.stage2_tlb.walker.requestOrigin_Completed::Data            0                       # Table walker requests started/completed, data/inst
system.cpu.itb.stage2_mmu.stage2_tlb.walker.requestOrigin_Completed::Inst            0                       # Table walker requests started/completed, data/inst
system.cpu.itb.stage2_mmu.stage2_tlb.walker.requestOrigin_Completed::total            0                       # Table walker requests started/completed, data/inst
system.cpu.itb.stage2_mmu.stage2_tlb.walker.requestOrigin::total            0                       # Table walker requests started/completed, data/inst
system.cpu.itb.stage2_mmu.stage2_tlb.walker.power_state.pwrStateResidencyTicks::UNDEFINED 126441259000                       # Cumulative time (in ticks) in various power states
system.cpu.itb.walker.walks                         0                       # Table walker walks requested
system.cpu.itb.walker.requestOrigin_Requested::Data            0                       # Table walker requests started/completed, data/inst
system.cpu.itb.walker.requestOrigin_Requested::Inst            0                       # Table walker requests started/completed, data/inst
system.cpu.itb.walker.requestOrigin_Requested::total            0                       # Table walker requests started/completed, data/inst
system.cpu.itb.walker.requestOrigin_Completed::Data            0                       # Table walker requests started/completed, data/inst
system.cpu.itb.walker.requestOrigin_Completed::Inst            0                       # Table walker requests started/completed, data/inst
system.cpu.itb.walker.requestOrigin_Completed::total            0                       # Table walker requests started/completed, data/inst
system.cpu.itb.walker.requestOrigin::total            0                       # Table walker requests started/completed, data/inst
system.cpu.itb.walker.power_state.pwrStateResidencyTicks::UNDEFINED 126441259000                       # Cumulative time (in ticks) in various power states
system.cpu.power_state.pwrStateResidencyTicks::ON 126441259000                       # Cumulative time (in ticks) in various power states
system.cpu.thread_0.numInsts                100000001                       # Number of Instructions committed
system.cpu.thread_0.numOps                  100849488                       # Number of Ops committed
system.cpu.thread_0.numMemRefs                      0                       # Number of Memory References
system.cpu_clk_domain.clock                      1000                       # Clock period in ticks
system.cpu_voltage_domain.voltage                   1                       # Voltage in Volts
system.l2.demand_hits::.cpu.inst                 2802                       # number of demand (read+write) hits
system.l2.demand_hits::.cpu.data                71225                       # number of demand (read+write) hits
system.l2.demand_hits::total                    74027                       # number of demand (read+write) hits
system.l2.overall_hits::.cpu.inst                2802                       # number of overall hits
system.l2.overall_hits::.cpu.data               71225                       # number of overall hits
system.l2.overall_hits::total                   74027                       # number of overall hits
system.l2.demand_misses::.cpu.inst               1668                       # number of demand (read+write) misses
system.l2.demand_misses::.cpu.data               4384                       # number of demand (read+write) misses
system.l2.demand_misses::total                   6052                       # number of demand (read+write) misses
system.l2.overall_misses::.cpu.inst              1668                       # number of overall misses
system.l2.overall_misses::.cpu.data              4384                       # number of overall misses
system.l2.overall_misses::total                  6052                       # number of overall misses
system.l2.demand_miss_latency::.cpu.inst    161424000                       # number of demand (read+write) miss cycles
system.l2.demand_miss_latency::.cpu.data    433034000                       # number of demand (read+write) miss cycles
system.l2.demand_miss_latency::total        594458000                       # number of demand (read+write) miss cycles
system.l2.overall_miss_latency::.cpu.inst    161424000                       # number of overall miss cycles
system.l2.overall_miss_latency::.cpu.data    433034000                       # number of overall miss cycles
system.l2.overall_miss_latency::total       594458000                       # number of overall miss cycles
system.l2.demand_accesses::.cpu.inst             4470                       # number of demand (read+write) accesses
system.l2.demand_accesses::.cpu.data            75609                       # number of demand (read+write) accesses
system.l2.demand_accesses::total                80079                       # number of demand (read+write) accesses
system.l2.overall_accesses::.cpu.inst            4470                       # number of overall (read+write) accesses
system.l2.overall_accesses::.cpu.data           75609                       # number of overall (read+write) accesses
system.l2.overall_accesses::total               80079                       # number of overall (read+write) accesses
system.l2.demand_miss_rate::.cpu.inst        0.373154                       # miss rate for demand accesses
system.l2.demand_miss_rate::.cpu.data        0.057983                       # miss rate for demand accesses
system.l2.demand_miss_rate::total            0.075575                       # miss rate for demand accesses
system.l2.overall_miss_rate::.cpu.inst       0.373154                       # miss rate for overall accesses
system.l2.overall_miss_rate::.cpu.data       0.057983                       # miss rate for overall accesses
system.l2.overall_miss_rate::total           0.075575                       # miss rate for overall accesses
system.l2.demand_avg_miss_latency::.cpu.inst 96776.978417                       # average overall miss latency
system.l2.demand_avg_miss_latency::.cpu.data 98776.003650                       # average overall miss latency
system.l2.demand_avg_miss_latency::total 98225.049570                       # average overall miss latency
system.l2.overall_avg_miss_latency::.cpu.inst 96776.978417                       # average overall miss latency
system.l2.overall_avg_miss_latency::.cpu.data 98776.003650                       # average overall miss latency
system.l2.overall_avg_miss_latency::total 98225.049570                       # average overall miss latency
system.l2.blocked_cycles::no_mshrs                  0                       # number of cycles access was blocked
system.l2.blocked_cycles::no_targets                0                       # number of cycles access was blocked
system.l2.blocked::no_mshrs                         0                       # number of cycles access was blocked
system.l2.blocked::no_targets                       0                       # number of cycles access was blocked
system.l2.avg_blocked_cycles::no_mshrs            nan                       # average number of cycles each access was blocked
system.l2.avg_blocked_cycles::no_targets          nan                       # average number of cycles each access was blocked
system.l2.demand_mshr_hits::.cpu.data               8                       # number of demand (read+write) MSHR hits
system.l2.demand_mshr_hits::total                   8                       # number of demand (read+write) MSHR hits
system.l2.overall_mshr_hits::.cpu.data              8                       # number of overall MSHR hits
system.l2.overall_mshr_hits::total                  8                       # number of overall MSHR hits
system.l2.demand_mshr_misses::.cpu.inst          1668                       # number of demand (read+write) MSHR misses
system.l2.demand_mshr_misses::.cpu.data          4376                       # number of demand (read+write) MSHR misses
system.l2.demand_mshr_misses::total              6044                       # number of demand (read+write) MSHR misses
system.l2.overall_mshr_misses::.cpu.inst         1668                       # number of overall MSHR misses
system.l2.overall_mshr_misses::.cpu.data         4376                       # number of overall MSHR misses
system.l2.overall_mshr_misses::total             6044                       # number of overall MSHR misses
system.l2.demand_mshr_miss_latency::.cpu.inst    128064000                       # number of demand (read+write) MSHR miss cycles
system.l2.demand_mshr_miss_latency::.cpu.data    344880000                       # number of demand (read+write) MSHR miss cycles
system.l2.demand_mshr_miss_latency::total    472944000                       # number of demand (read+write) MSHR miss cycles
system.l2.overall_mshr_miss_latency::.cpu.inst    128064000                       # number of overall MSHR miss cycles
system.l2.overall_mshr_miss_latency::.cpu.data    344880000                       # number of overall MSHR miss cycles
system.l2.overall_mshr_miss_latency::total    472944000                       # number of overall MSHR miss cycles
system.l2.demand_mshr_miss_rate::.cpu.inst     0.373154                       # mshr miss rate for demand accesses
system.l2.demand_mshr_miss_rate::.cpu.data     0.057877                       # mshr miss rate for demand accesses
system.l2.demand_mshr_miss_rate::total       0.075475                       # mshr miss rate for demand accesses
system.l2.overall_mshr_miss_rate::.cpu.inst     0.373154                       # mshr miss rate for overall accesses
system.l2.overall_mshr_miss_rate::.cpu.data     0.057877                       # mshr miss rate for overall accesses
system.l2.overall_mshr_miss_rate::total      0.075475                       # mshr miss rate for overall accesses
system.l2.demand_avg_mshr_miss_latency::.cpu.inst 76776.978417                       # average overall mshr miss latency
system.l2.demand_avg_mshr_miss_latency::.cpu.data 78811.700183                       # average overall mshr miss latency
system.l2.demand_avg_mshr_miss_latency::total 78250.165453                       # average overall mshr miss latency
system.l2.overall_avg_mshr_miss_latency::.cpu.inst 76776.978417                       # average overall mshr miss latency
system.l2.overall_avg_mshr_miss_latency::.cpu.data 78811.700183                       # average overall mshr miss latency
system.l2.overall_avg_mshr_miss_latency::total 78250.165453                       # average overall mshr miss latency
system.l2.replacements                              0                       # number of replacements
system.l2.WritebackDirty_hits::.writebacks        73099                       # number of WritebackDirty hits
system.l2.WritebackDirty_hits::total            73099                       # number of WritebackDirty hits
system.l2.WritebackDirty_accesses::.writebacks        73099                       # number of WritebackDirty accesses(hits+misses)
system.l2.WritebackDirty_accesses::total        73099                       # number of WritebackDirty accesses(hits+misses)
system.l2.WritebackClean_hits::.writebacks         3919                       # number of WritebackClean hits
system.l2.WritebackClean_hits::total             3919                       # number of WritebackClean hits
system.l2.WritebackClean_accesses::.writebacks         3919                       # number of WritebackClean accesses(hits+misses)
system.l2.WritebackClean_accesses::total         3919                       # number of WritebackClean accesses(hits+misses)
system.l2.ReadExReq_hits::.cpu.data             56277                       # number of ReadExReq hits
system.l2.ReadExReq_hits::total                 56277                       # number of ReadExReq hits
system.l2.ReadExReq_misses::.cpu.data            3640                       # number of ReadExReq misses
system.l2.ReadExReq_misses::total                3640                       # number of ReadExReq misses
system.l2.ReadExReq_miss_latency::.cpu.data    358093000                       # number of ReadExReq miss cycles
system.l2.ReadExReq_miss_latency::total     358093000                       # number of ReadExReq miss cycles
system.l2.ReadExReq_accesses::.cpu.data         59917                       # number of ReadExReq accesses(hits+misses)
system.l2.ReadExReq_accesses::total             59917                       # number of ReadExReq accesses(hits+misses)
system.l2.ReadExReq_miss_rate::.cpu.data     0.060751                       # miss rate for ReadExReq accesses
system.l2.ReadExReq_miss_rate::total         0.060751                       # miss rate for ReadExReq accesses
system.l2.ReadExReq_avg_miss_latency::.cpu.data 98377.197802                       # average ReadExReq miss latency
system.l2.ReadExReq_avg_miss_latency::total 98377.197802                       # average ReadExReq miss latency
system.l2.ReadExReq_mshr_misses::.cpu.data         3640                       # number of ReadExReq MSHR misses
system.l2.ReadExReq_mshr_misses::total           3640                       # number of ReadExReq MSHR misses
system.l2.ReadExReq_mshr_miss_latency::.cpu.data    285293000                       # number of ReadExReq MSHR miss cycles
system.l2.ReadExReq_mshr_miss_latency::total    285293000                       # number of ReadExReq MSHR miss cycles
system.l2.ReadExReq_mshr_miss_rate::.cpu.data     0.060751                       # mshr miss rate for ReadExReq accesses
system.l2.ReadExReq_mshr_miss_rate::total     0.060751                       # mshr miss rate for ReadExReq accesses
system.l2.ReadExReq_avg_mshr_miss_latency::.cpu.data 78377.197802                       # average ReadExReq mshr miss latency
system.l2.ReadExReq_avg_mshr_miss_latency::total 78377.197802                       # average ReadExReq mshr miss latency
system.l2.ReadCleanReq_hits::.cpu.inst           2802                       # number of ReadCleanReq hits
system.l2.ReadCleanReq_hits::total               2802                       # number of ReadCleanReq hits
system.l2.ReadCleanReq_misses::.cpu.inst         1668                       # number of ReadCleanReq misses
system.l2.ReadCleanReq_misses::total             1668                       # number of ReadCleanReq misses
system.l2.ReadCleanReq_miss_latency::.cpu.inst    161424000                       # number of ReadCleanReq miss cycles
system.l2.ReadCleanReq_miss_latency::total    161424000                       # number of ReadCleanReq miss cycles
system.l2.ReadCleanReq_accesses::.cpu.inst         4470                       # number of ReadCleanReq accesses(hits+misses)
system.l2.ReadCleanReq_accesses::total           4470                       # number of ReadCleanReq accesses(hits+misses)
system.l2.ReadCleanReq_miss_rate::.cpu.inst     0.373154                       # miss rate for ReadCleanReq accesses
system.l2.ReadCleanReq_miss_rate::total      0.373154                       # miss rate for ReadCleanReq accesses
system.l2.ReadCleanReq_avg_miss_latency::.cpu.inst 96776.978417                       # average ReadCleanReq miss latency
system.l2.ReadCleanReq_avg_miss_latency::total 96776.978417                       # average ReadCleanReq miss latency
system.l2.ReadCleanReq_mshr_misses::.cpu.inst         1668                       # number of ReadCleanReq MSHR misses
system.l2.ReadCleanReq_mshr_misses::total         1668                       # number of ReadCleanReq MSHR misses
system.l2.ReadCleanReq_mshr_miss_latency::.cpu.inst    128064000                       # number of ReadCleanReq MSHR miss cycles
system.l2.ReadCleanReq_mshr_miss_latency::total    128064000                       # number of ReadCleanReq MSHR miss cycles
system.l2.ReadCleanReq_mshr_miss_rate::.cpu.inst     0.373154                       # mshr miss rate for ReadCleanReq accesses
system.l2.ReadCleanReq_mshr_miss_rate::total     0.373154                       # mshr miss rate for ReadCleanReq accesses
system.l2.ReadCleanReq_avg_mshr_miss_latency::.cpu.inst 76776.978417                       # average ReadCleanReq mshr miss latency
system.l2.ReadCleanReq_avg_mshr_miss_latency::total 76776.978417                       # average ReadCleanReq mshr miss latency
system.l2.ReadSharedReq_hits::.cpu.data         14948                       # number of ReadSharedReq hits
system.l2.ReadSharedReq_hits::total             14948                       # number of ReadSharedReq hits
system.l2.ReadSharedReq_misses::.cpu.data          744                       # number of ReadSharedReq misses
system.l2.ReadSharedReq_misses::total             744                       # number of ReadSharedReq misses
system.l2.ReadSharedReq_miss_latency::.cpu.data     74941000                       # number of ReadSharedReq miss cycles
system.l2.ReadSharedReq_miss_latency::total     74941000                       # number of ReadSharedReq miss cycles
system.l2.ReadSharedReq_accesses::.cpu.data        15692                       # number of ReadSharedReq accesses(hits+misses)
system.l2.ReadSharedReq_accesses::total         15692                       # number of ReadSharedReq accesses(hits+misses)
system.l2.ReadSharedReq_miss_rate::.cpu.data     0.047413                       # miss rate for ReadSharedReq accesses
system.l2.ReadSharedReq_miss_rate::total     0.047413                       # miss rate for ReadSharedReq accesses
system.l2.ReadSharedReq_avg_miss_latency::.cpu.data 100727.150538                       # average ReadSharedReq miss latency
system.l2.ReadSharedReq_avg_miss_latency::total 100727.150538                       # average ReadSharedReq miss latency
system.l2.ReadSharedReq_mshr_hits::.cpu.data            8                       # number of ReadSharedReq MSHR hits
system.l2.ReadSharedReq_mshr_hits::total            8                       # number of ReadSharedReq MSHR hits
system.l2.ReadSharedReq_mshr_misses::.cpu.data          736                       # number of ReadSharedReq MSHR misses
system.l2.ReadSharedReq_mshr_misses::total          736                       # number of ReadSharedReq MSHR misses
system.l2.ReadSharedReq_mshr_miss_latency::.cpu.data     59587000                       # number of ReadSharedReq MSHR miss cycles
system.l2.ReadSharedReq_mshr_miss_latency::total     59587000                       # number of ReadSharedReq MSHR miss cycles
system.l2.ReadSharedReq_mshr_miss_rate::.cpu.data     0.046903                       # mshr miss rate for ReadSharedReq accesses
system.l2.ReadSharedReq_mshr_miss_rate::total     0.046903                       # mshr miss rate for ReadSharedReq accesses
system.l2.ReadSharedReq_avg_mshr_miss_latency::.cpu.data 80960.597826                       # average ReadSharedReq mshr miss latency
system.l2.ReadSharedReq_avg_mshr_miss_latency::total 80960.597826                       # average ReadSharedReq mshr miss latency
system.l2.power_state.pwrStateResidencyTicks::UNDEFINED 126441259000                       # Cumulative time (in ticks) in various power states
system.l2.tags.tagsinuse                  5863.324260                       # Cycle average of tags in use
system.l2.tags.total_refs                      158273                       # Total number of references to valid blocks.
system.l2.tags.sampled_refs                      6044                       # Sample count of references to valid blocks.
system.l2.tags.avg_refs                     26.186797                       # Average number of references to valid blocks.
system.l2.tags.warmup_cycle                     87000                       # Cycle when the warmup percentage was hit.
system.l2.tags.occ_blocks::.cpu.inst      1661.015703                       # Average occupied blocks per requestor
system.l2.tags.occ_blocks::.cpu.data      4202.308557                       # Average occupied blocks per requestor
system.l2.tags.occ_percent::.cpu.inst        0.050690                       # Average percentage of cache occupancy
system.l2.tags.occ_percent::.cpu.data        0.128244                       # Average percentage of cache occupancy
system.l2.tags.occ_percent::total            0.178934                       # Average percentage of cache occupancy
system.l2.tags.occ_task_id_blocks::1024          6044                       # Occupied blocks per task id
system.l2.tags.age_task_id_blocks_1024::4         6044                       # Occupied blocks per task id
system.l2.tags.occ_task_id_percent::1024     0.184448                       # Percentage of cache occupancy per task id
system.l2.tags.tag_accesses                   1272292                       # Number of tag accesses
system.l2.tags.data_accesses                  1272292                       # Number of data accesses
system.l2.tags.power_state.pwrStateResidencyTicks::UNDEFINED 126441259000                       # Cumulative time (in ticks) in various power states
system.mem_ctrls.avgPriority_.cpu.inst::samples      1668.00                       # Average QoS priority value for accepted requests
system.mem_ctrls.avgPriority_.cpu.data::samples      4376.00                       # Average QoS priority value for accepted requests
system.mem_ctrls.priorityMinLatency      0.000000018750                       # per QoS priority minimum request to response latency (s)
system.mem_ctrls.priorityMaxLatency      0.000000578000                       # per QoS priority maximum request to response latency (s)
system.mem_ctrls.numReadWriteTurnArounds            0                       # Number of turnarounds from READ to WRITE
system.mem_ctrls.numWriteReadTurnArounds            0                       # Number of turnarounds from WRITE to READ
system.mem_ctrls.numStayReadState               44559                       # Number of times bus staying in READ state
system.mem_ctrls.numStayWriteState                  0                       # Number of times bus staying in WRITE state
system.mem_ctrls.readReqs                        6044                       # Number of read requests accepted
system.mem_ctrls.writeReqs                          0                       # Number of write requests accepted
system.mem_ctrls.readBursts                      6044                       # Number of controller read bursts, including those serviced by the write queue
system.mem_ctrls.writeBursts                        0                       # Number of controller write bursts, including those merged in the write queue
system.mem_ctrls.servicedByWrQ                      0                       # Number of controller read bursts serviced by the write queue
system.mem_ctrls.mergedWrBursts                     0                       # Number of controller write bursts merged with an existing one
system.mem_ctrls.neitherReadNorWriteReqs            0                       # Number of requests that are neither read nor write
system.mem_ctrls.avgRdQLen                       1.00                       # Average read queue length when enqueuing
system.mem_ctrls.avgWrQLen                       0.00                       # Average write queue length when enqueuing
system.mem_ctrls.numRdRetry                         0                       # Number of times read queue was full causing retry
system.mem_ctrls.numWrRetry                         0                       # Number of times write queue was full causing retry
system.mem_ctrls.readPktSize::0                     0                       # Read request sizes (log2)
system.mem_ctrls.readPktSize::1                     0                       # Read request sizes (log2)
system.mem_ctrls.readPktSize::2                     0                       # Read request sizes (log2)
system.mem_ctrls.readPktSize::3                     0                       # Read request sizes (log2)
system.mem_ctrls.readPktSize::4                     0                       # Read request sizes (log2)
system.mem_ctrls.readPktSize::5                     0                       # Read request sizes (log2)
system.mem_ctrls.readPktSize::6                  6044                       # Read request sizes (log2)
system.mem_ctrls.writePktSize::0                    0                       # Write request sizes (log2)
system.mem_ctrls.writePktSize::1                    0                       # Write request sizes (log2)
system.mem_ctrls.writePktSize::2                    0                       # Write request sizes (log2)
system.mem_ctrls.writePktSize::3                    0                       # Write request sizes (log2)
system.mem_ctrls.writePktSize::4                    0                       # Write request sizes (log2)
system.mem_ctrls.writePktSize::5                    0                       # Write request sizes (log2)
system.mem_ctrls.writePktSize::6                    0                       # Write request sizes (log2)
system.mem_ctrls.rdQLenPdf::0                    5825                       # What read queue length does an incoming req see
system.mem_ctrls.rdQLenPdf::1                     200                       # What read queue length does an incoming req see
[...]
system.mem_ctrls.dram.bw_read::.cpu.data      2214973                       # Total read bandwidth from this memory (bytes/s)
system.mem_ctrls.dram.bw_read::total          3059255                       # Total read bandwidth from this memory (bytes/s)
system.mem_ctrls.dram.bw_inst_read::.cpu.inst       844281                       # Instruction read bandwidth from this memory (bytes/s)
system.mem_ctrls.dram.bw_inst_read::total       844281                       # Instruction read bandwidth from this memory (bytes/s)
system.mem_ctrls.dram.bw_total::.cpu.inst       844281                       # Total bandwidth to/from this memory (bytes/s)
system.mem_ctrls.dram.bw_total::.cpu.data      2214973                       # Total bandwidth to/from this memory (bytes/s)
system.mem_ctrls.dram.bw_total::total         3059255                       # Total bandwidth to/from this memory (bytes/s)
system.mem_ctrls.dram.readBursts                 6044                       # Number of DRAM read bursts
system.mem_ctrls.dram.writeBursts                   0                       # Number of DRAM write bursts
system.mem_ctrls.dram.perBankRdBursts::0          426                       # Per bank write bursts
system.mem_ctrls.dram.perBankRdBursts::1          371                       # Per bank write bursts
system.mem_ctrls.dram.perBankRdBursts::2          340                       # Per bank write bursts
system.mem_ctrls.dram.perBankRdBursts::3          441                       # Per bank write bursts
system.mem_ctrls.dram.perBankRdBursts::4          393                       # Per bank write bursts
system.mem_ctrls.dram.perBankRdBursts::5          429                       # Per bank write bursts
system.mem_ctrls.dram.perBankRdBursts::6          282                       # Per bank write bursts
system.mem_ctrls.dram.perBankRdBursts::7          293                       # Per bank write bursts
system.mem_ctrls.dram.perBankRdBursts::8          290                       # Per bank write bursts
system.mem_ctrls.dram.perBankRdBursts::9          457                       # Per bank write bursts
system.mem_ctrls.dram.perBankRdBursts::10          308                       # Per bank write bursts
system.mem_ctrls.dram.perBankRdBursts::11          382                       # Per bank write bursts
system.mem_ctrls.dram.perBankRdBursts::12          424                       # Per bank write bursts
system.mem_ctrls.dram.perBankRdBursts::13          487                       # Per bank write bursts
system.mem_ctrls.dram.perBankRdBursts::14          401                       # Per bank write bursts
system.mem_ctrls.dram.perBankRdBursts::15          320                       # Per bank write bursts
system.mem_ctrls.dram.perBankWrBursts::0            0                       # Per bank write bursts
system.mem_ctrls.dram.perBankWrBursts::1            0                       # Per bank write bursts
system.mem_ctrls.dram.perBankWrBursts::2            0                       # Per bank write bursts
system.mem_ctrls.dram.perBankWrBursts::3            0                       # Per bank write bursts
system.mem_ctrls.dram.perBankWrBursts::4            0                       # Per bank write bursts
system.mem_ctrls.dram.perBankWrBursts::5            0                       # Per bank write bursts
system.mem_ctrls.dram.perBankWrBursts::6            0                       # Per bank write bursts
system.mem_ctrls.dram.perBankWrBursts::7            0                       # Per bank write bursts
system.mem_ctrls.dram.perBankWrBursts::8            0                       # Per bank write bursts
system.mem_ctrls.dram.perBankWrBursts::9            0                       # Per bank write bursts
system.mem_ctrls.dram.perBankWrBursts::10            0                       # Per bank write bursts
system.mem_ctrls.dram.perBankWrBursts::11            0                       # Per bank write bursts
system.mem_ctrls.dram.perBankWrBursts::12            0                       # Per bank write bursts
system.mem_ctrls.dram.perBankWrBursts::13            0                       # Per bank write bursts
system.mem_ctrls.dram.perBankWrBursts::14            0                       # Per bank write bursts
system.mem_ctrls.dram.perBankWrBursts::15            0                       # Per bank write bursts
system.mem_ctrls.dram.totQLat                49427750                       # Total ticks spent queuing
system.mem_ctrls.dram.totBusLat              30220000                       # Total ticks spent in databus transfers
system.mem_ctrls.dram.totMemAccLat          162752750                       # Total ticks spent from burst creation until serviced by the DRAM
system.mem_ctrls.dram.avgQLat                 8177.99                       # Average queueing delay per DRAM burst
system.mem_ctrls.dram.avgBusLat               5000.00                       # Average bus latency per DRAM burst
system.mem_ctrls.dram.avgMemAccLat           26927.99                       # Average memory access latency per DRAM burst
system.mem_ctrls.dram.readRowHits                4385                       # Number of row buffer hits during reads
system.mem_ctrls.dram.writeRowHits                  0                       # Number of row buffer hits during writes
system.mem_ctrls.dram.readRowHitRate            72.55                       # Row buffer hit rate for reads
system.mem_ctrls.dram.writeRowHitRate             nan                       # Row buffer hit rate for writes
system.mem_ctrls.dram.bytesPerActivate::samples         1659                       # Bytes accessed per row activation
system.mem_ctrls.dram.bytesPerActivate::mean   233.162146                       # Bytes accessed per row activation
system.mem_ctrls.dram.bytesPerActivate::gmean   152.112966                       # Bytes accessed per row activation
system.mem_ctrls.dram.bytesPerActivate::stdev   267.388423                       # Bytes accessed per row activation
system.mem_ctrls.dram.bytesPerActivate::0-127          558     33.63%     33.63% # Bytes accessed per row activation
system.mem_ctrls.dram.bytesPerActivate::128-255          642     38.70%     72.33% # Bytes accessed per row activation
system.mem_ctrls.dram.bytesPerActivate::256-383          210     12.66%     84.99% # Bytes accessed per row activation
system.mem_ctrls.dram.bytesPerActivate::384-511           42      2.53%     87.52% # Bytes accessed per row activation
system.mem_ctrls.dram.bytesPerActivate::512-639           34      2.05%     89.57% # Bytes accessed per row activation
system.mem_ctrls.dram.bytesPerActivate::640-767           23      1.39%     90.96% # Bytes accessed per row activation
system.mem_ctrls.dram.bytesPerActivate::768-895           11      0.66%     91.62% # Bytes accessed per row activation
system.mem_ctrls.dram.bytesPerActivate::896-1023           21      1.27%     92.89% # Bytes accessed per row activation
system.mem_ctrls.dram.bytesPerActivate::1024-1151          118      7.11%    100.00% # Bytes accessed per row activation
system.mem_ctrls.dram.bytesPerActivate::total         1659                       # Bytes accessed per row activation
system.mem_ctrls.dram.bytesRead                386816                       # Total number of bytes read from DRAM
system.mem_ctrls.dram.bytesWritten                  0                       # Total number of bytes written to DRAM
system.mem_ctrls.dram.avgRdBW                3.059255                       # Average DRAM read bandwidth in MiBytes/s
system.mem_ctrls.dram.avgWrBW                       0                       # Average DRAM write bandwidth in MiBytes/s
system.mem_ctrls.dram.peakBW                 12800.00                       # Theoretical peak bandwidth in MiByte/s
system.mem_ctrls.dram.busUtil                    0.02                       # Data bus utilization in percentage
system.mem_ctrls.dram.busUtilRead                0.02                       # Data bus utilization in percentage for reads
system.mem_ctrls.dram.busUtilWrite               0.00                       # Data bus utilization in percentage for writes
system.mem_ctrls.dram.pageHitRate               72.55                       # Row buffer hit rate, read and write combined
system.mem_ctrls.dram.power_state.pwrStateResidencyTicks::UNDEFINED 126441259000                       # Cumulative time (in ticks) in various power states
system.mem_ctrls.dram.rank0.actEnergy         5105100                       # Energy for activate commands per rank (pJ)
system.mem_ctrls.dram.rank0.preEnergy         2713425                       # Energy for precharge commands per rank (pJ)
system.mem_ctrls.dram.rank0.readEnergy       21241500                       # Energy for read commands per rank (pJ)
system.mem_ctrls.dram.rank0.writeEnergy             0                       # Energy for write commands per rank (pJ)
system.mem_ctrls.dram.rank0.refreshEnergy 9981138960.000002                       # Energy for refresh commands per rank (pJ)
system.mem_ctrls.dram.rank0.actBackEnergy   2746692060                       # Energy for active background per rank (pJ)
system.mem_ctrls.dram.rank0.preBackEnergy  46240440000                       # Energy for precharge background per rank (pJ)
system.mem_ctrls.dram.rank0.actPowerDownEnergy            0                       # Energy for active power-down per rank (pJ)
system.mem_ctrls.dram.rank0.prePowerDownEnergy            0                       # Energy for precharge power-down per rank (pJ)
system.mem_ctrls.dram.rank0.selfRefreshEnergy            0                       # Energy for self refresh per rank (pJ)
system.mem_ctrls.dram.rank0.totalEnergy   58997331045                       # Total energy per rank (pJ)
system.mem_ctrls.dram.rank0.averagePower   466.598731                       # Core power per rank (mW)
system.mem_ctrls.dram.rank0.totalIdleTime            0                       # Total Idle time Per DRAM Rank
system.mem_ctrls.dram.rank0.pwrStateTime::IDLE 120189128000                       # Time in different power states
system.mem_ctrls.dram.rank0.pwrStateTime::REF   4222140000                       # Time in different power states
system.mem_ctrls.dram.rank0.pwrStateTime::SREF            0                       # Time in different power states
system.mem_ctrls.dram.rank0.pwrStateTime::PRE_PDN            0                       # Time in different power states
system.mem_ctrls.dram.rank0.pwrStateTime::ACT   2029991000                       # Time in different power states
system.mem_ctrls.dram.rank0.pwrStateTime::ACT_PDN            0                       # Time in different power states
system.mem_ctrls.dram.rank1.actEnergy         6740160                       # Energy for activate commands per rank (pJ)
system.mem_ctrls.dram.rank1.preEnergy         3582480                       # Energy for precharge commands per rank (pJ)
system.mem_ctrls.dram.rank1.readEnergy       21912660                       # Energy for read commands per rank (pJ)
system.mem_ctrls.dram.rank1.writeEnergy             0                       # Energy for write commands per rank (pJ)
system.mem_ctrls.dram.rank1.refreshEnergy 9981138960.000002                       # Energy for refresh commands per rank (pJ)
system.mem_ctrls.dram.rank1.actBackEnergy   3022862760                       # Energy for active background per rank (pJ)
system.mem_ctrls.dram.rank1.preBackEnergy  46007875200                       # Energy for precharge background per rank (pJ)
system.mem_ctrls.dram.rank1.actPowerDownEnergy            0                       # Energy for active power-down per rank (pJ)
system.mem_ctrls.dram.rank1.prePowerDownEnergy            0                       # Energy for precharge power-down per rank (pJ)
system.mem_ctrls.dram.rank1.selfRefreshEnergy            0                       # Energy for self refresh per rank (pJ)
system.mem_ctrls.dram.rank1.totalEnergy   59044112220                       # Total energy per rank (pJ)
system.mem_ctrls.dram.rank1.averagePower   466.968715                       # Core power per rank (mW)
system.mem_ctrls.dram.rank1.totalIdleTime            0                       # Total Idle time Per DRAM Rank
system.mem_ctrls.dram.rank1.pwrStateTime::IDLE 119581872500                       # Time in different power states
system.mem_ctrls.dram.rank1.pwrStateTime::REF   4222140000                       # Time in different power states
system.mem_ctrls.dram.rank1.pwrStateTime::SREF            0                       # Time in different power states
system.mem_ctrls.dram.rank1.pwrStateTime::PRE_PDN            0                       # Time in different power states
system.mem_ctrls.dram.rank1.pwrStateTime::ACT   2637246500                       # Time in different power states
system.mem_ctrls.dram.rank1.pwrStateTime::ACT_PDN            0                       # Time in different power states
system.mem_ctrls.power_state.pwrStateResidencyTicks::UNDEFINED 126441259000                       # Cumulative time (in ticks) in various power states
system.membus.trans_dist::ReadResp               2404                       # Transaction distribution
system.membus.trans_dist::ReadExReq              3640                       # Transaction distribution
system.membus.trans_dist::ReadExResp             3640                       # Transaction distribution
system.membus.trans_dist::ReadSharedReq          2404                       # Transaction distribution
system.membus.pkt_count_system.l2.mem_side_port::system.mem_ctrls.port        12088                       # Packet count per connected requestor and responder (bytes)
system.membus.pkt_count::total                  12088                       # Packet count per connected requestor and responder (bytes)
system.membus.pkt_size_system.l2.mem_side_port::system.mem_ctrls.port       386816                       # Cumulative packet size per connected requestor and responder (bytes)
system.membus.pkt_size::total                  386816                       # Cumulative packet size per connected requestor and responder (bytes)
system.membus.snoops                                0                       # Total snoops (count)
system.membus.snoopTraffic                          0                       # Total snoop traffic (bytes)
system.membus.snoop_fanout::samples              6044                       # Request fanout histogram
system.membus.snoop_fanout::mean                    0                       # Request fanout histogram
system.membus.snoop_fanout::stdev                   0                       # Request fanout histogram
system.membus.snoop_fanout::underflows              0      0.00%      0.00% # Request fanout histogram
system.membus.snoop_fanout::0                    6044    100.00%    100.00% # Request fanout histogram
system.membus.snoop_fanout::1                       0      0.00%    100.00% # Request fanout histogram
system.membus.snoop_fanout::overflows               0      0.00%    100.00% # Request fanout histogram
system.membus.snoop_fanout::min_value               0                       # Request fanout histogram
system.membus.snoop_fanout::max_value               0                       # Request fanout histogram
system.membus.snoop_fanout::total                6044                       # Request fanout histogram
system.membus.power_state.pwrStateResidencyTicks::UNDEFINED 126441259000                       # Cumulative time (in ticks) in various power states
system.membus.reqLayer0.occupancy             6044000                       # Layer occupancy (ticks)
system.membus.reqLayer0.utilization               0.0                       # Layer utilization (%)
system.membus.respLayer1.occupancy           32141750                       # Layer occupancy (ticks)
system.membus.respLayer1.utilization              0.0                       # Layer utilization (%)
system.tol2bus.trans_dist::ReadResp             20162                       # Transaction distribution
system.tol2bus.trans_dist::WritebackDirty        73099                       # Transaction distribution
system.tol2bus.trans_dist::WritebackClean         3958                       # Transaction distribution
system.tol2bus.trans_dist::CleanEvict            1486                       # Transaction distribution
system.tol2bus.trans_dist::ReadExReq            59917                       # Transaction distribution
system.tol2bus.trans_dist::ReadExResp           59917                       # Transaction distribution
system.tol2bus.trans_dist::ReadCleanReq          4470                       # Transaction distribution
system.tol2bus.trans_dist::ReadSharedReq        15692                       # Transaction distribution
system.tol2bus.pkt_count_system.cpu.icache.mem_side_port::system.l2.cpu_side_port        12898                       # Packet count per connected requestor and responder (bytes)
system.tol2bus.pkt_count_system.cpu.dcache.mem_side_port::system.l2.cpu_side_port       225803                       # Packet count per connected requestor and responder (bytes)
system.tol2bus.pkt_count::total                238701                       # Packet count per connected requestor and responder (bytes)
system.tol2bus.pkt_size_system.cpu.icache.mem_side_port::system.l2.cpu_side_port       539392                       # Cumulative packet size per connected requestor and responder (bytes)
system.tol2bus.pkt_size_system.cpu.dcache.mem_side_port::system.l2.cpu_side_port      9517312                       # Cumulative packet size per connected requestor and responder (bytes)
system.tol2bus.pkt_size::total               10056704                       # Cumulative packet size per connected requestor and responder (bytes)
system.tol2bus.snoops                               0                       # Total snoops (count)
system.tol2bus.snoopTraffic                         0                       # Total snoop traffic (bytes)
system.tol2bus.snoop_fanout::samples            80079                       # Request fanout histogram
system.tol2bus.snoop_fanout::mean            0.004333                       # Request fanout histogram
system.tol2bus.snoop_fanout::stdev           0.065685                       # Request fanout histogram
system.tol2bus.snoop_fanout::underflows             0      0.00%      0.00% # Request fanout histogram
system.tol2bus.snoop_fanout::0                  79732     99.57%     99.57% # Request fanout histogram
system.tol2bus.snoop_fanout::1                    347      0.43%    100.00% # Request fanout histogram
system.tol2bus.snoop_fanout::2                      0      0.00%    100.00% # Request fanout histogram
system.tol2bus.snoop_fanout::overflows              0      0.00%    100.00% # Request fanout histogram
system.tol2bus.snoop_fanout::min_value              0                       # Request fanout histogram
system.tol2bus.snoop_fanout::max_value              1                       # Request fanout histogram
system.tol2bus.snoop_fanout::total              80079                       # Request fanout histogram
system.tol2bus.power_state.pwrStateResidencyTicks::UNDEFINED 126441259000                       # Cumulative time (in ticks) in various power states
system.tol2bus.reqLayer0.occupancy          312736000                       # Layer occupancy (ticks)
system.tol2bus.reqLayer0.utilization              0.2                       # Layer utilization (%)
system.tol2bus.respLayer0.occupancy          13413996                       # Layer occupancy (ticks)
system.tol2bus.respLayer0.utilization             0.0                       # Layer utilization (%)
system.tol2bus.respLayer1.occupancy         226834992                       # Layer occupancy (ticks)
system.tol2bus.respLayer1.utilization             0.2                       # Layer utilization (%)
system.voltage_domain.voltage                       1                       # Voltage in Volts

---------- End Simulation Statistics   ----------
