
---------- Begin Simulation Statistics ----------
final_tick                               709309454000                       # Number of ticks from beginning of simulation (restored from checkpoints and never reset)
host_inst_rate                                  78659                       # Simulator instruction rate (inst/s)
host_mem_usage                                 671200                       # Number of bytes of host memory used
host_op_rate                                   145371                       # Simulator op (including micro ops) rate (op/s)
host_seconds                                  1271.32                       # Real time elapsed on the host
host_tick_rate                              557933422                       # Simulator tick rate (ticks/s)
sim_freq                                 1000000000000                       # Frequency of simulated ticks
sim_insts                                   100000001                       # Number of instructions simulated
sim_ops                                     184812628                       # Number of ops (including micro ops) simulated
sim_seconds                                  0.709309                       # Number of seconds simulated
sim_ticks                                709309454000                       # Number of ticks simulated
system.cpu.committedInsts                   100000001                       # Number of instructions committed
system.cpu.committedOps                     184812628                       # Number of ops (including micro ops) committed
system.cpu.cpi                               7.093094                       # CPI: cycles per instruction
system.cpu.discardedOps                          3805                       # Number of ops (including micro ops) which were discarded before commit
system.cpu.idleCycles                       487097732                       # Total number of cycles that the object has spent stopped
system.cpu.ipc                               0.140982                       # IPC: instructions per cycle
system.cpu.numCycles                        709309454                       # number of cpu cycles simulated
system.cpu.numFetchSuspends                         0                       # Number of times Execute suspended instruction fetching
system.cpu.numWorkItemsCompleted                    0                       # number of work items this cpu completed
system.cpu.numWorkItemsStarted                      0                       # number of work items this cpu started
system.cpu.op_class_0::No_OpClass                   0      0.00%      0.00% # Class of committed instruction
system.cpu.op_class_0::IntAlu                98417144     53.25%     53.25% # Class of committed instruction
system.cpu.op_class_0::IntMult                 114667      0.06%     53.31% # Class of committed instruction
system.cpu.op_class_0::IntDiv                       5      0.00%     53.31% # Class of committed instruction
system.cpu.op_class_0::FloatAdd                     0      0.00%     53.31% # Class of committed instruction
system.cpu.op_class_0::FloatCmp                     0      0.00%     53.31% # Class of committed instruction
system.cpu.op_class_0::FloatCvt                     0      0.00%     53.31% # Class of committed instruction
system.cpu.op_class_0::FloatMult                    0      0.00%     53.31% # Class of committed instruction
system.cpu.op_class_0::FloatMultAcc                 0      0.00%     53.31% # Class of committed instruction
system.cpu.op_class_0::FloatDiv                     0      0.00%     53.31% # Class of committed instruction
system.cpu.op_class_0::FloatMisc                    0      0.00%     53.31% # Class of committed instruction
system.cpu.op_class_0::FloatSqrt                    0      0.00%     53.31% # Class of committed instruction
system.cpu.op_class_0::SimdAdd                      0      0.00%     53.31% # Class of committed instruction
system.cpu.op_class_0::SimdAddAcc                   0      0.00%     53.31% # Class of committed instruction
system.cpu.op_class_0::SimdAlu                      0      0.00%     53.31% # Class of committed instruction
system.cpu.op_class_0::SimdCmp                      0      0.00%     53.31% # Class of committed instruction
system.cpu.op_class_0::SimdCvt                      0      0.00%     53.31% # Class of committed instruction
system.cpu.op_class_0::SimdMisc                     0      0.00%     53.31% # Class of committed instruction
system.cpu.op_class_0::SimdMult                     0      0.00%     53.31% # Class of committed instruction
system.cpu.op_class_0::SimdMultAcc                  0      0.00%     53.31% # Class of committed instruction
system.cpu.op_class_0::SimdShift                    0      0.00%     53.31% # Class of committed instruction
system.cpu.op_class_0::SimdShiftAcc                 0      0.00%     53.31% # Class of committed instruction
system.cpu.op_class_0::SimdDiv                      0      0.00%     53.31% # Class of committed instruction
system.cpu.op_class_0::SimdSqrt                     0      0.00%     53.31% # Class of committed instruction
system.cpu.op_class_0::SimdFloatAdd                 0      0.00%     53.31% # Class of committed instruction
system.cpu.op_class_0::SimdFloatAlu                 0      0.00%     53.31% # Class of committed instruction
system.cpu.op_class_0::SimdFloatCmp                 0      0.00%     53.31% # Class of committed instruction
system.cpu.op_class_0::SimdFloatCvt                 0      0.00%     53.31% # Class of committed instruction
system.cpu.op_class_0::SimdFloatDiv                 0      0.00%     53.31% # Class of committed instruction
system.cpu.op_class_0::SimdFloatMisc                2      0.00%     53.31% # Class of committed instruction
system.cpu.op_class_0::SimdFloatMult                0      0.00%     53.31% # Class of committed instruction
system.cpu.op_class_0::SimdFloatMultAcc             0      0.00%     53.31% # Class of committed instruction
system.cpu.op_class_0::SimdFloatSqrt                0      0.00%     53.31% # Class of committed instruction
system.cpu.op_class_0::SimdReduceAdd                0      0.00%     53.31% # Class of committed instruction
system.cpu.op_class_0::SimdReduceAlu                0      0.00%     53.31% # Class of committed instruction
system.cpu.op_class_0::SimdReduceCmp                0      0.00%     53.31% # Class of committed instruction
system.cpu.op_class_0::SimdFloatReduceAdd            0      0.00%     53.31% # Class of committed instruction
system.cpu.op_class_0::SimdFloatReduceCmp            0      0.00%     53.31% # Class of committed instruction
system.cpu.op_class_0::SimdAes                      0      0.00%     53.31% # Class of committed instruction
system.cpu.op_class_0::SimdAesMix                   0      0.00%     53.31% # Class of committed instruction
system.cpu.op_class_0::SimdSha1Hash                 0      0.00%     53.31% # Class of committed instruction
system.cpu.op_class_0::SimdSha1Hash2                0      0.00%     53.31% # Class of committed instruction
system.cpu.op_class_0::SimdSha256Hash               0      0.00%     53.31% # Class of committed instruction
system.cpu.op_class_0::SimdSha256Hash2              0      0.00%     53.31% # Class of committed instruction
system.cpu.op_class_0::SimdShaSigma2                0      0.00%     53.31% # Class of committed instruction
system.cpu.op_class_0::SimdShaSigma3                0      0.00%     53.31% # Class of committed instruction
system.cpu.op_class_0::SimdPredAlu                  0      0.00%     53.31% # Class of committed instruction
system.cpu.op_class_0::MemRead                1305605      0.71%     54.02% # Class of committed instruction
system.cpu.op_class_0::MemWrite              84975205     45.98%    100.00% # Class of committed instruction
system.cpu.op_class_0::FloatMemRead                 0      0.00%    100.00% # Class of committed instruction
system.cpu.op_class_0::FloatMemWrite                0      0.00%    100.00% # Class of committed instruction
system.cpu.op_class_0::IprAccess                    0      0.00%    100.00% # Class of committed instruction
system.cpu.op_class_0::InstPrefetch                 0      0.00%    100.00% # Class of committed instruction
system.cpu.op_class_0::total                184812628                       # Class of committed instruction
system.cpu.tickCycles                       222211722                       # Number of cycles that the object actually ticked
system.cpu.workload.numSyscalls                    18                       # Number of system calls
system.membus.snoop_filter.hit_multi_requests            0                       # Number of requests hitting in the snoop filter with multiple (>1) holders of the requested data.
system.membus.snoop_filter.hit_multi_snoops            0                       # Number of snoops hitting in the snoop filter with multiple (>1) holders of the requested data.
system.membus.snoop_filter.hit_single_requests      5267739                       # Number of requests hitting in the snoop filter with a single holder of the requested data.
system.membus.snoop_filter.hit_single_snoops            0                       # Number of snoops hitting in the snoop filter with a single holder of the requested data.
system.membus.snoop_filter.tot_requests      10568681                       # Total number of requests made to the snoop filter.
system.membus.snoop_filter.tot_snoops               0                       # Total number of snoops made to the snoop filter.
system.tol2bus.snoop_filter.hit_multi_requests           28                       # Number of requests hitting in the snoop filter with multiple (>1) holders of the requested data.
system.tol2bus.snoop_filter.hit_multi_snoops            0                       # Number of snoops hitting in the snoop filter with multiple (>1) holders of the requested data.
system.tol2bus.snoop_filter.hit_single_requests      5299563                       # Number of requests hitting in the snoop filter with a single holder of the requested data.
system.tol2bus.snoop_filter.hit_single_snoops          581                       # Number of snoops hitting in the snoop filter with a single holder of the requested data.
system.tol2bus.snoop_filter.tot_requests     10600587                       # Total number of requests made to the snoop filter.
system.tol2bus.snoop_filter.tot_snoops            581                       # Total number of snoops made to the snoop filter.
system.clk_domain.clock                          1000                       # Clock period in ticks
system.cpu.branchPred.lookups                10731392                       # Number of BP lookups
system.cpu.branchPred.condPredicted          10723535                       # Number of conditional branches predicted
system.cpu.branchPred.condIncorrect              1279                       # Number of conditional branches incorrect
system.cpu.branchPred.BTBLookups             10724085                       # Number of BTB lookups
system.cpu.branchPred.BTBHits                10722931                       # Number of BTB hits
system.cpu.branchPred.BTBHitPct             99.989239                       # BTB Hit Percentage
system.cpu.branchPred.RASUsed                    2613                       # Number of times the RAS was used to get a target.
system.cpu.branchPred.RASIncorrect                  4                       # Number of incorrect RAS predictions.
system.cpu.branchPred.indirectLookups             125                       # Number of indirect predictor lookups.
system.cpu.branchPred.indirectHits                  5                       # Number of indirect target hits.
system.cpu.branchPred.indirectMisses              120                       # Number of indirect misses.
system.cpu.branchPred.indirectMispredicted           82                       # Number of mispredicted indirect branches.
system.cpu.dcache.demand_hits::.cpu.data     75599571                       # number of demand (read+write) hits
system.cpu.dcache.demand_hits::total         75599571                       # number of demand (read+write) hits
system.cpu.dcache.overall_hits::.cpu.data     75599600                       # number of overall hits
system.cpu.dcache.overall_hits::total        75599600                       # number of overall hits
system.cpu.dcache.demand_misses::.cpu.data     10597860                       # number of demand (read+write) misses
system.cpu.dcache.demand_misses::total       10597860                       # number of demand (read+write) misses
system.cpu.dcache.overall_misses::.cpu.data     10597877                       # number of overall misses
system.cpu.dcache.overall_misses::total      10597877                       # number of overall misses
system.cpu.dcache.demand_miss_latency::.cpu.data 1116949761000                       # number of demand (read+write) miss cycles
system.cpu.dcache.demand_miss_latency::total 1116949761000                       # number of demand (read+write) miss cycles
system.cpu.dcache.overall_miss_latency::.cpu.data 1116949761000                       # number of overall miss cycles
system.cpu.dcache.overall_miss_latency::total 1116949761000                       # number of overall miss cycles
system.cpu.dcache.demand_accesses::.cpu.data     86197431                       # number of demand (read+write) accesses
system.cpu.dcache.demand_accesses::total     86197431                       # number of demand (read+write) accesses
system.cpu.dcache.overall_accesses::.cpu.data     86197477                       # number of overall (read+write) accesses
system.cpu.dcache.overall_accesses::total     86197477                       # number of overall (read+write) accesses
system.cpu.dcache.demand_miss_rate::.cpu.data     0.122949                       # miss rate for demand accesses
system.cpu.dcache.demand_miss_rate::total     0.122949                       # miss rate for demand accesses
system.cpu.dcache.overall_miss_rate::.cpu.data     0.122949                       # miss rate for overall accesses
system.cpu.dcache.overall_miss_rate::total     0.122949                       # miss rate for overall accesses
system.cpu.dcache.demand_avg_miss_latency::.cpu.data 105393.896598                       # average overall miss latency
system.cpu.dcache.demand_avg_miss_latency::total 105393.896598                       # average overall miss latency
system.cpu.dcache.overall_avg_miss_latency::.cpu.data 105393.727536                       # average overall miss latency
system.cpu.dcache.overall_avg_miss_latency::total 105393.727536                       # average overall miss latency
system.cpu.dcache.blocked_cycles::no_mshrs            0                       # number of cycles access was blocked
system.cpu.dcache.blocked_cycles::no_targets            0                       # number of cycles access was blocked
system.cpu.dcache.blocked::no_mshrs                 0                       # number of cycles access was blocked
system.cpu.dcache.blocked::no_targets               0                       # number of cycles access was blocked
system.cpu.dcache.avg_blocked_cycles::no_mshrs          nan                       # average number of cycles each access was blocked
system.cpu.dcache.avg_blocked_cycles::no_targets          nan                       # average number of cycles each access was blocked
system.cpu.dcache.writebacks::.writebacks      5299072                       # number of writebacks
system.cpu.dcache.writebacks::total           5299072                       # number of writebacks
system.cpu.dcache.demand_mshr_hits::.cpu.data      5297606                       # number of demand (read+write) MSHR hits
system.cpu.dcache.demand_mshr_hits::total      5297606                       # number of demand (read+write) MSHR hits
system.cpu.dcache.overall_mshr_hits::.cpu.data      5297606                       # number of overall MSHR hits
system.cpu.dcache.overall_mshr_hits::total      5297606                       # number of overall MSHR hits
system.cpu.dcache.demand_mshr_misses::.cpu.data      5300254                       # number of demand (read+write) MSHR misses
system.cpu.dcache.demand_mshr_misses::total      5300254                       # number of demand (read+write) MSHR misses
system.cpu.dcache.overall_mshr_misses::.cpu.data      5300268                       # number of overall MSHR misses
system.cpu.dcache.overall_mshr_misses::total      5300268                       # number of overall MSHR misses
system.cpu.dcache.demand_mshr_miss_latency::.cpu.data 545374555000                       # number of demand (read+write) MSHR miss cycles
system.cpu.dcache.demand_mshr_miss_latency::total 545374555000                       # number of demand (read+write) MSHR miss cycles
system.cpu.dcache.overall_mshr_miss_latency::.cpu.data 545376048000                       # number of overall MSHR miss cycles
system.cpu.dcache.overall_mshr_miss_latency::total 545376048000                       # number of overall MSHR miss cycles
system.cpu.dcache.demand_mshr_miss_rate::.cpu.data     0.061490                       # mshr miss rate for demand accesses
system.cpu.dcache.demand_mshr_miss_rate::total     0.061490                       # mshr miss rate for demand accesses
system.cpu.dcache.overall_mshr_miss_rate::.cpu.data     0.061490                       # mshr miss rate for overall accesses
system.cpu.dcache.overall_mshr_miss_rate::total     0.061490                       # mshr miss rate for overall accesses
system.cpu.dcache.demand_avg_mshr_miss_latency::.cpu.data 102895.928195                       # average overall mshr miss latency
system.cpu.dcache.demand_avg_mshr_miss_latency::total 102895.928195                       # average overall mshr miss latency
system.cpu.dcache.overall_avg_mshr_miss_latency::.cpu.data 102895.938092                       # average overall mshr miss latency
system.cpu.dcache.overall_avg_mshr_miss_latency::total 102895.938092                       # average overall mshr miss latency
system.cpu.dcache.replacements                5299246                       # number of replacements
system.cpu.dcache.ReadReq_hits::.cpu.data      1266405                       # number of ReadReq hits
system.cpu.dcache.ReadReq_hits::total         1266405                       # number of ReadReq hits
system.cpu.dcache.ReadReq_misses::.cpu.data          216                       # number of ReadReq misses
system.cpu.dcache.ReadReq_misses::total           216                       # number of ReadReq misses
system.cpu.dcache.ReadReq_miss_latency::.cpu.data     21083000                       # number of ReadReq miss cycles
system.cpu.dcache.ReadReq_miss_latency::total     21083000                       # number of ReadReq miss cycles
system.cpu.dcache.ReadReq_accesses::.cpu.data      1266621                       # number of ReadReq accesses(hits+misses)
system.cpu.dcache.ReadReq_accesses::total      1266621                       # number of ReadReq accesses(hits+misses)
system.cpu.dcache.ReadReq_miss_rate::.cpu.data     0.000171                       # miss rate for ReadReq accesses
system.cpu.dcache.ReadReq_miss_rate::total     0.000171                       # miss rate for ReadReq accesses
system.cpu.dcache.ReadReq_avg_miss_latency::.cpu.data 97606.481481                       # average ReadReq miss latency
system.cpu.dcache.ReadReq_avg_miss_latency::total 97606.481481                       # average ReadReq miss latency
system.cpu.dcache.ReadReq_mshr_hits::.cpu.data           10                       # number of ReadReq MSHR hits
system.cpu.dcache.ReadReq_mshr_hits::total           10                       # number of ReadReq MSHR hits
system.cpu.dcache.ReadReq_mshr_misses::.cpu.data          206                       # number of ReadReq MSHR misses
system.cpu.dcache.ReadReq_mshr_misses::total          206                       # number of ReadReq MSHR misses
system.cpu.dcache.ReadReq_mshr_miss_latency::.cpu.data     19564000                       # number of ReadReq MSHR miss cycles
system.cpu.dcache.ReadReq_mshr_miss_latency::total     19564000                       # number of ReadReq MSHR miss cycles
system.cpu.dcache.ReadReq_mshr_miss_rate::.cpu.data     0.000163                       # mshr miss rate for ReadReq accesses
system.cpu.dcache.ReadReq_mshr_miss_rate::total     0.000163                       # mshr miss rate for ReadReq accesses
system.cpu.dcache.ReadReq_avg_mshr_miss_latency::.cpu.data 94970.873786                       # average ReadReq mshr miss latency
system.cpu.dcache.ReadReq_avg_mshr_miss_latency::total 94970.873786                       # average ReadReq mshr miss latency
system.cpu.dcache.WriteReq_hits::.cpu.data     74333166                       # number of WriteReq hits
system.cpu.dcache.WriteReq_hits::total       74333166                       # number of WriteReq hits
system.cpu.dcache.WriteReq_misses::.cpu.data     10597644                       # number of WriteReq misses
system.cpu.dcache.WriteReq_misses::total     10597644                       # number of WriteReq misses
system.cpu.dcache.WriteReq_miss_latency::.cpu.data 1116928678000                       # number of WriteReq miss cycles
system.cpu.dcache.WriteReq_miss_latency::total 1116928678000                       # number of WriteReq miss cycles
system.cpu.dcache.WriteReq_accesses::.cpu.data     84930810                       # number of WriteReq accesses(hits+misses)
system.cpu.dcache.WriteReq_accesses::total     84930810                       # number of WriteReq accesses(hits+misses)
system.cpu.dcache.WriteReq_miss_rate::.cpu.data     0.124780                       # miss rate for WriteReq accesses
system.cpu.dcache.WriteReq_miss_rate::total     0.124780                       # miss rate for WriteReq accesses
system.cpu.dcache.WriteReq_avg_miss_latency::.cpu.data 105394.055320                       # average WriteReq miss latency
system.cpu.dcache.WriteReq_avg_miss_latency::total 105394.055320                       # average WriteReq miss latency
system.cpu.dcache.WriteReq_mshr_hits::.cpu.data      5297596                       # number of WriteReq MSHR hits
system.cpu.dcache.WriteReq_mshr_hits::total      5297596                       # number of WriteReq MSHR hits
system.cpu.dcache.WriteReq_mshr_misses::.cpu.data      5300048                       # number of WriteReq MSHR misses
system.cpu.dcache.WriteReq_mshr_misses::total      5300048                       # number of WriteReq MSHR misses
system.cpu.dcache.WriteReq_mshr_miss_latency::.cpu.data 545354991000                       # number of WriteReq MSHR miss cycles
system.cpu.dcache.WriteReq_mshr_miss_latency::total 545354991000                       # number of WriteReq MSHR miss cycles
system.cpu.dcache.WriteReq_mshr_miss_rate::.cpu.data     0.062404                       # mshr miss rate for WriteReq accesses
system.cpu.dcache.WriteReq_mshr_miss_rate::total     0.062404                       # mshr miss rate for WriteReq accesses
system.cpu.dcache.WriteReq_avg_mshr_miss_latency::.cpu.data 102896.236223                       # average WriteReq mshr miss latency
system.cpu.dcache.WriteReq_avg_mshr_miss_latency::total 102896.236223                       # average WriteReq mshr miss latency
system.cpu.dcache.SoftPFReq_hits::.cpu.data           29                       # number of SoftPFReq hits
system.cpu.dcache.SoftPFReq_hits::total            29                       # number of SoftPFReq hits
system.cpu.dcache.SoftPFReq_misses::.cpu.data           17                       # number of SoftPFReq misses
system.cpu.dcache.SoftPFReq_misses::total           17                       # number of SoftPFReq misses
system.cpu.dcache.SoftPFReq_accesses::.cpu.data           46                       # number of SoftPFReq accesses(hits+misses)
system.cpu.dcache.SoftPFReq_accesses::total           46                       # number of SoftPFReq accesses(hits+misses)
system.cpu.dcache.SoftPFReq_miss_rate::.cpu.data     0.369565                       # miss rate for SoftPFReq accesses
system.cpu.dcache.SoftPFReq_miss_rate::total     0.369565                       # miss rate for SoftPFReq accesses
system.cpu.dcache.SoftPFReq_mshr_misses::.cpu.data           14                       # number of SoftPFReq MSHR misses
system.cpu.dcache.SoftPFReq_mshr_misses::total           14                       # number of SoftPFReq MSHR misses
system.cpu.dcache.SoftPFReq_mshr_miss_latency::.cpu.data      1493000                       # number of SoftPFReq MSHR miss cycles
system.cpu.dcache.SoftPFReq_mshr_miss_latency::total      1493000                       # number of SoftPFReq MSHR miss cycles
system.cpu.dcache.SoftPFReq_mshr_miss_rate::.cpu.data     0.304348                       # mshr miss rate for SoftPFReq accesses
system.cpu.dcache.SoftPFReq_mshr_miss_rate::total     0.304348                       # mshr miss rate for SoftPFReq accesses
system.cpu.dcache.SoftPFReq_avg_mshr_miss_latency::.cpu.data 106642.857143                       # average SoftPFReq mshr miss latency
system.cpu.dcache.SoftPFReq_avg_mshr_miss_latency::total 106642.857143                       # average SoftPFReq mshr miss latency
system.cpu.dcache.LoadLockedReq_hits::.cpu.data           48                       # number of LoadLockedReq hits
system.cpu.dcache.LoadLockedReq_hits::total           48                       # number of LoadLockedReq hits
system.cpu.dcache.LoadLockedReq_misses::.cpu.data            2                       # number of LoadLockedReq misses
system.cpu.dcache.LoadLockedReq_misses::total            2                       # number of LoadLockedReq misses
system.cpu.dcache.LoadLockedReq_miss_latency::.cpu.data       285000                       # number of LoadLockedReq miss cycles
system.cpu.dcache.LoadLockedReq_miss_latency::total       285000                       # number of LoadLockedReq miss cycles
system.cpu.dcache.LoadLockedReq_accesses::.cpu.data           50                       # number of LoadLockedReq accesses(hits+misses)
system.cpu.dcache.LoadLockedReq_accesses::total           50                       # number of LoadLockedReq accesses(hits+misses)
system.cpu.dcache.LoadLockedReq_miss_rate::.cpu.data     0.040000                       # miss rate for LoadLockedReq accesses
system.cpu.dcache.LoadLockedReq_miss_rate::total     0.040000                       # miss rate for LoadLockedReq accesses
system.cpu.dcache.LoadLockedReq_avg_miss_latency::.cpu.data       142500                       # average LoadLockedReq miss latency
system.cpu.dcache.LoadLockedReq_avg_miss_latency::total       142500                       # average LoadLockedReq miss latency
system.cpu.dcache.LoadLockedReq_mshr_misses::.cpu.data            2                       # number of LoadLockedReq MSHR misses
system.cpu.dcache.LoadLockedReq_mshr_misses::total            2                       # number of LoadLockedReq MSHR misses
system.cpu.dcache.LoadLockedReq_mshr_miss_latency::.cpu.data       281000                       # number of LoadLockedReq MSHR miss cycles
system.cpu.dcache.LoadLockedReq_mshr_miss_latency::total       281000                       # number of LoadLockedReq MSHR miss cycles
system.cpu.dcache.LoadLockedReq_mshr_miss_rate::.cpu.data     0.040000                       # mshr miss rate for LoadLockedReq accesses
system.cpu.dcache.LoadLockedReq_mshr_miss_rate::total     0.040000                       # mshr miss rate for LoadLockedReq accesses
system.cpu.dcache.LoadLockedReq_avg_mshr_miss_latency::.cpu.data       140500                       # average LoadLockedReq mshr miss latency
system.cpu.dcache.LoadLockedReq_avg_mshr_miss_latency::total       140500                       # average LoadLockedReq mshr miss latency
system.cpu.dcache.StoreCondReq_hits::.cpu.data           50                       # number of StoreCondReq hits
system.cpu.dcache.StoreCondReq_hits::total           50                       # number of StoreCondReq hits
system.cpu.dcache.StoreCondReq_accesses::.cpu.data           50                       # number of StoreCondReq accesses(hits+misses)
system.cpu.dcache.StoreCondReq_accesses::total           50                       # number of StoreCondReq accesses(hits+misses)
system.cpu.dcache.power_state.pwrStateResidencyTicks::UNDEFINED 709309454000                       # Cumulative time (in ticks) in various power states
system.cpu.dcache.tags.tagsinuse          1023.327485                       # Cycle average of tags in use
system.cpu.dcache.tags.total_refs            80899968                       # Total number of references to valid blocks.
system.cpu.dcache.tags.sampled_refs           5300270                       # Sample count of references to valid blocks.
system.cpu.dcache.tags.avg_refs             15.263367                       # Average number of references to valid blocks.
system.cpu.dcache.tags.warmup_cycle            240000                       # Cycle when the warmup percentage was hit.
system.cpu.dcache.tags.occ_blocks::.cpu.data  1023.327485                       # Average occupied blocks per requestor
system.cpu.dcache.tags.occ_percent::.cpu.data     0.999343                       # Average percentage of cache occupancy
system.cpu.dcache.tags.occ_percent::total     0.999343                       # Average percentage of cache occupancy
system.cpu.dcache.tags.occ_task_id_blocks::1024         1024                       # Occupied blocks per task id
system.cpu.dcache.tags.age_task_id_blocks_1024::0           76                       # Occupied blocks per task id
system.cpu.dcache.tags.age_task_id_blocks_1024::1          678                       # Occupied blocks per task id
system.cpu.dcache.tags.age_task_id_blocks_1024::2          270                       # Occupied blocks per task id
system.cpu.dcache.tags.occ_task_id_percent::1024            1                       # Percentage of cache occupancy per task id
system.cpu.dcache.tags.tag_accesses         177695424                       # Number of tag accesses
system.cpu.dcache.tags.data_accesses        177695424                       # Number of data accesses
system.cpu.dcache.tags.power_state.pwrStateResidencyTicks::UNDEFINED 709309454000                       # Cumulative time (in ticks) in various power states
system.cpu.dtb.instHits                             0                       # ITB inst hits
system.cpu.dtb.instMisses                           0                       # ITB inst misses
system.cpu.dtb.readHits                             0                       # DTB read hits
system.cpu.dtb.readMisses                           0                       # DTB read misses
system.cpu.dtb.writeHits                            0                       # DTB write hits
system.cpu.dtb.writeMisses                          0                       # DTB write misses
system.cpu.dtb.inserts                              0                       # Number of times an entry is inserted into the TLB
system.cpu.dtb.flushTlb                             0                       # Number of times complete TLB was flushed
system.cpu.dtb.flushTlbMva                          0                       # Number of times TLB was flushed by MVA
system.cpu.dtb.flushTlbMvaAsid                      0                       # Number of times TLB was flushed by MVA & ASID
system.cpu.dtb.flushTlbAsid                         0                       # Number of times TLB was flushed by ASID
system.cpu.dtb.flushedEntries                       0                       # Number of entries that have been flushed from TLB
system.cpu.dtb.alignFaults                          0                       # Number of TLB faults due to alignment restrictions
system.cpu.dtb.prefetchFaults                       0                       # Number of TLB faults due to prefetch
system.cpu.dtb.domainFaults                         0                       # Number of TLB faults due to domain restrictions
system.cpu.dtb.permsFaults                          0                       # Number of TLB faults due to permissions restrictions
system.cpu.dtb.readAccesses                         0                       # DTB read accesses
system.cpu.dtb.writeAccesses                        0                       # DTB write accesses
system.cpu.dtb.instAccesses                         0                       # ITB inst accesses
system.cpu.dtb.hits                                 0                       # Total TLB (inst and data) hits
system.cpu.dtb.misses                               0                       # Total TLB (inst and data) misses
system.cpu.dtb.accesses                             0                       # Total TLB (inst and data) accesses
system.cpu.dtb.stage2_mmu.stage2_tlb.instHits            0                       # ITB inst hits
system.cpu.dtb.stage2_mmu.stage2_tlb.instMisses            0                       # ITB inst misses
system.cpu.dtb.stage2_mmu.stage2_tlb.readHits            0                       # DTB read hits
system.cpu.dtb.stage2_mmu.stage2_tlb.readMisses            0                       # DTB read misses
system.cpu.dtb.stage2_mmu.stage2_tlb.writeHits            0                       # DTB write hits
system.cpu.dtb.stage2_mmu.stage2_tlb.writeMisses            0                       # DTB write misses
system.cpu.dtb.stage2_mmu.stage2_tlb.inserts            0                       # Number of times an entry is inserted into the TLB
system.cpu.dtb.stage2_mmu.stage2_tlb.flushTlb            0                       # Number of times complete TLB was flushed
system.cpu.dtb.stage2_mmu.stage2_tlb.flushTlbMva            0                       # Number of times TLB was flushed by MVA
system.cpu.dtb.stage2_mmu.stage2_tlb.flushTlbMvaAsid            0                       # Number of times TLB was flushed by MVA & ASID
system.cpu.dtb.stage2_mmu.stage2_tlb.flushTlbAsid            0                       # Number of times TLB was flushed by ASID
system.cpu.dtb.stage2_mmu.stage2_tlb.flushedEntries            0                       # Number of entries that have been flushed from TLB
system.cpu.dtb.stage2_mmu.stage2_tlb.alignFaults            0                       # Number of TLB faults due to alignment restrictions
system.cpu.dtb.stage2_mmu.stage2_tlb.prefetchFaults            0                       # Number of TLB faults due to prefetch
system.cpu.dtb.stage2_mmu.stage2_tlb.domainFaults            0                       # Number of TLB faults due to domain restrictions
system.cpu.dtb.stage2_mmu.stage2_tlb.permsFaults            0                       # Number of TLB faults due to permissions restrictions
system.cpu.dtb.stage2_mmu.stage2_tlb.readAccesses            0                       # DTB read accesses
system.cpu.dtb.stage2_mmu.stage2_tlb.writeAccesses            0                       # DTB write accesses
system.cpu.dtb.stage2_mmu.stage2_tlb.instAccesses            0                       # ITB inst accesses
system.cpu.dtb.stage2_mmu.stage2_tlb.hits            0                       # Total TLB (inst and data) hits
system.cpu.dtb.stage2_mmu.stage2_tlb.misses            0                       # Total TLB (inst and data) misses
system.cpu.dtb.stage2_mmu.stage2_tlb.accesses            0                       # Total TLB (inst and data) accesses
system.cpu.dtb.stage2_mmu.stage2_tlb.walker.walks            0                       # Table walker walks requested
system.cpu.dtb.stage2_mmu.stage2_tlb.walker.requestOrigin_Requested::Data            0                       # Table walker requests started/completed, data/inst
system.cpu.dtb.stage2_mmu.stage2_tlb.walker.requestOrigin_Requested::Inst            0                       # Table walker requests started/completed, data/inst
system.cpu.dtb.stage2_mmu.stage2_tlb.walker.requestOrigin_Requested::total            0                       # Table walker requests started/completed, data/inst
system.cpu.dtb.stage2_mmu.stage2_tlb.walker.requestOrigin_Completed::Data            0                       # Table walker requests started/completed, data/inst
system.cpu.dtb.stage2_mmu.stage2_tlb.walker.requestOrigin_Completed::Inst            0                       # Table walker requests started/completed, data/inst
system.cpu.dtb.stage2_mmu.stage2_tlb.walker.requestOrigin_Completed::total            0                       # Table walker requests started/completed, data/inst
system.cpu.dtb.stage2_mmu.stage2_tlb.walker.requestOrigin::total            0                       # Table walker requests started/completed, data/inst
system.cpu.dtb.stage2_mmu.stage2_tlb.walker.power_state.pwrStateResidencyTicks::UNDEFINED 709309454000                       # Cumulative time (in ticks) in various power states
system.cpu.dtb.walker.walks                         0                       # Table walker walks requested
system.cpu.dtb.walker.requestOrigin_Requested::Data            0                       # Table walker requests started/completed, data/inst
system.cpu.dtb.walker.requestOrigin_Requested::Inst            0                       # Table walker requests started/completed, data/inst
system.cpu.dtb.walker.requestOrigin_Requested::total            0                       # Table walker requests started/completed, data/inst
system.cpu.dtb.walker.requestOrigin_Completed::Data            0                       # Table walker requests started/completed, data/inst
system.cpu.dtb.walker.requestOrigin_Completed::Inst            0                       # Table walker requests started/completed, data/inst
system.cpu.dtb.walker.requestOrigin_Completed::total            0                       # Table walker requests started/completed, data/inst
system.cpu.dtb.walker.requestOrigin::total            0                       # Table walker requests started/completed, data/inst
system.cpu.dtb.walker.power_state.pwrStateResidencyTicks::UNDEFINED 709309454000                       # Cumulative time (in ticks) in various power states
system.cpu.fetch2.intInstructions            45696427                       # Number of integer instructions successfully decoded
system.cpu.fetch2.fpInstructions                    0                       # Number of floating point instructions successfully decoded
system.cpu.fetch2.vecInstructions                   0                       # Number of SIMD instructions successfully decoded
system.cpu.fetch2.loadInstructions            1306942                       # Number of memory load instructions successfully decoded
system.cpu.fetch2.storeInstructions            169195                       # Number of memory store instructions successfully decoded
system.cpu.fetch2.amoInstructions                   0                       # Number of memory atomic instructions successfully decoded
system.cpu.icache.demand_hits::.cpu.inst     32462361                       # number of demand (read+write) hits
system.cpu.icache.demand_hits::total         32462361                       # number of demand (read+write) hits
system.cpu.icache.overall_hits::.cpu.inst     32462361                       # number of overall hits
system.cpu.icache.overall_hits::total        32462361                       # number of overall hits
system.cpu.icache.demand_misses::.cpu.inst          754                       # number of demand (read+write) misses
system.cpu.icache.demand_misses::total            754                       # number of demand (read+write) misses
system.cpu.icache.overall_misses::.cpu.inst          754                       # number of overall misses
system.cpu.icache.overall_misses::total           754                       # number of overall misses
system.cpu.icache.demand_miss_latency::.cpu.inst     76591000                       # number of demand (read+write) miss cycles
system.cpu.icache.demand_miss_latency::total     76591000                       # number of demand (read+write) miss cycles
system.cpu.icache.overall_miss_latency::.cpu.inst     76591000                       # number of overall miss cycles
system.cpu.icache.overall_miss_latency::total     76591000                       # number of overall miss cycles
system.cpu.icache.demand_accesses::.cpu.inst     32463115                       # number of demand (read+write) accesses
system.cpu.icache.demand_accesses::total     32463115                       # number of demand (read+write) accesses
system.cpu.icache.overall_accesses::.cpu.inst     32463115                       # number of overall (read+write) accesses
system.cpu.icache.overall_accesses::total     32463115                       # number of overall (read+write) accesses
system.cpu.icache.demand_miss_rate::.cpu.inst     0.000023                       # miss rate for demand accesses
system.cpu.icache.demand_miss_rate::total     0.000023                       # miss rate for demand accesses
system.cpu.icache.overall_miss_rate::.cpu.inst     0.000023                       # miss rate for overall accesses
system.cpu.icache.overall_miss_rate::total     0.000023                       # miss rate for overall accesses
system.cpu.icache.demand_avg_miss_latency::.cpu.inst 101579.575597                       # average overall miss latency
system.cpu.icache.demand_avg_miss_latency::total 101579.575597                       # average overall miss latency
system.cpu.icache.overall_avg_miss_latency::.cpu.inst 101579.575597                       # average overall miss latency
system.cpu.icache.overall_avg_miss_latency::total 101579.575597                       # average overall miss latency
system.cpu.icache.blocked_cycles::no_mshrs            0                       # number of cycles access was blocked
system.cpu.icache.blocked_cycles::no_targets            0                       # number of cycles access was blocked
system.cpu.icache.blocked::no_mshrs                 0                       # number of cycles access was blocked
system.cpu.icache.blocked::no_targets               0                       # number of cycles access was blocked
system.cpu.icache.avg_blocked_cycles::no_mshrs          nan                       # average number of cycles each access was blocked
system.cpu.icache.avg_blocked_cycles::no_targets          nan                       # average number of cycles each access was blocked
system.cpu.icache.writebacks::.writebacks          317                       # number of writebacks
system.cpu.icache.writebacks::total               317                       # number of writebacks
system.cpu.icache.demand_mshr_misses::.cpu.inst          754                       # number of demand (read+write) MSHR misses
system.cpu.icache.demand_mshr_misses::total          754                       # number of demand (read+write) MSHR misses
system.cpu.icache.overall_mshr_misses::.cpu.inst          754                       # number of overall MSHR misses
system.cpu.icache.overall_mshr_misses::total          754                       # number of overall MSHR misses
system.cpu.icache.demand_mshr_miss_latency::.cpu.inst     75083000                       # number of demand (read+write) MSHR miss cycles
system.cpu.icache.demand_mshr_miss_latency::total     75083000                       # number of demand (read+write) MSHR miss cycles
system.cpu.icache.overall_mshr_miss_latency::.cpu.inst     75083000                       # number of overall MSHR miss cycles
system.cpu.icache.overall_mshr_miss_latency::total     75083000                       # number of overall MSHR miss cycles
system.cpu.icache.demand_mshr_miss_rate::.cpu.inst     0.000023                       # mshr miss rate for demand accesses
system.cpu.icache.demand_mshr_miss_rate::total     0.000023                       # mshr miss rate for demand accesses
system.cpu.icache.overall_mshr_miss_rate::.cpu.inst     0.000023                       # mshr miss rate for overall accesses
system.cpu.icache.overall_mshr_miss_rate::total     0.000023                       # mshr miss rate for overall accesses
system.cpu.icache.demand_avg_mshr_miss_latency::.cpu.inst 99579.575597                       # average overall mshr miss latency
system.cpu.icache.demand_avg_mshr_miss_latency::total 99579.575597                       # average overall mshr miss latency
system.cpu.icache.overall_avg_mshr_miss_latency::.cpu.inst 99579.575597                       # average overall mshr miss latency
system.cpu.icache.overall_avg_mshr_miss_latency::total 99579.575597                       # average overall mshr miss latency
system.cpu.icache.replacements                    317                       # number of replacements
system.cpu.icache.ReadReq_hits::.cpu.inst     32462361                       # number of ReadReq hits
system.cpu.icache.ReadReq_hits::total        32462361                       # number of ReadReq hits
system.cpu.icache.ReadReq_misses::.cpu.inst          754                       # number of ReadReq misses
system.cpu.icache.ReadReq_misses::total           754                       # number of ReadReq misses
system.cpu.icache.ReadReq_miss_latency::.cpu.inst     76591000                       # number of ReadReq miss cycles
system.cpu.icache.ReadReq_miss_latency::total     76591000                       # number of ReadReq miss cycles
system.cpu.icache.ReadReq_accesses::.cpu.inst     32463115                       # number of ReadReq accesses(hits+misses)
system.cpu.icache.ReadReq_accesses::total     32463115                       # number of ReadReq accesses(hits+misses)
system.cpu.icache.ReadReq_miss_rate::.cpu.inst     0.000023                       # miss rate for ReadReq accesses
system.cpu.icache.ReadReq_miss_rate::total     0.000023                       # miss rate for ReadReq accesses
system.cpu.icache.ReadReq_avg_miss_latency::.cpu.inst 101579.575597                       # average ReadReq miss latency
system.cpu.icache.ReadReq_avg_miss_latency::total 101579.575597                       # average ReadReq miss latency
system.cpu.icache.ReadReq_mshr_misses::.cpu.inst          754                       # number of ReadReq MSHR misses
system.cpu.icache.ReadReq_mshr_misses::total          754                       # number of ReadReq MSHR misses
system.cpu.icache.ReadReq_mshr_miss_latency::.cpu.inst     75083000                       # number of ReadReq MSHR miss cycles
system.cpu.icache.ReadReq_mshr_miss_latency::total     75083000                       # number of ReadReq MSHR miss cycles
system.cpu.icache.ReadReq_mshr_miss_rate::.cpu.inst     0.000023                       # mshr miss rate for ReadReq accesses
system.cpu.icache.ReadReq_mshr_miss_rate::total     0.000023                       # mshr miss rate for ReadReq accesses
system.cpu.icache.ReadReq_avg_mshr_miss_latency::.cpu.inst 99579.575597                       # average ReadReq mshr miss latency
system.cpu.icache.ReadReq_avg_mshr_miss_latency::total 99579.575597                       # average ReadReq mshr miss latency
system.cpu.icache.power_state.pwrStateResidencyTicks::UNDEFINED 709309454000                       # Cumulative time (in ticks) in various power states
system.cpu.icache.tags.tagsinuse           384.365957                       # Cycle average of tags in use
system.cpu.icache.tags.total_refs            32463115                       # Total number of references to valid blocks.
system.cpu.icache.tags.sampled_refs               754                       # Sample count of references to valid blocks.
system.cpu.icache.tags.avg_refs          43054.529178                       # Average number of references to valid blocks.
system.cpu.icache.tags.warmup_cycle            108000                       # Cycle when the warmup percentage was hit.
system.cpu.icache.tags.occ_blocks::.cpu.inst   384.365957                       # Average occupied blocks per requestor
system.cpu.icache.tags.occ_percent::.cpu.inst     0.750715                       # Average percentage of cache occupancy
system.cpu.icache.tags.occ_percent::total     0.750715                       # Average percentage of cache occupancy
system.cpu.icache.tags.occ_task_id_blocks::1024          437                       # Occupied blocks per task id
system.cpu.icache.tags.age_task_id_blocks_1024::4          437                       # Occupied blocks per task id
system.cpu.icache.tags.occ_task_id_percent::1024     0.853516                       # Percentage of cache occupancy per task id
system.cpu.icache.tags.tag_accesses          64926984                       # Number of tag accesses
system.cpu.icache.tags.data_accesses         64926984                       # Number of data accesses
system.cpu.icache.tags.power_state.pwrStateResidencyTicks::UNDEFINED 709309454000                       # Cumulative time (in ticks) in various power states
system.cpu.itb.instHits                             0                       # ITB inst hits
system.cpu.itb.instMisses                           0                       # ITB inst misses
system.cpu.itb.readHits                             0                       # DTB read hits
system.cpu.itb.readMisses                           0                       # DTB read misses
system.cpu.itb.writeHits                            0                       # DTB write hits
system.cpu.itb.writeMisses                          0                       # DTB write misses
system.cpu.itb.inserts                              0                       # Number of times an entry is inserted into the TLB
system.cpu.itb.flushTlb                             0                       # Number of times complete TLB was flushed
system.cpu.itb.flushTlbMva                          0                       # Number of times TLB was flushed by MVA
system.cpu.itb.flushTlbMvaAsid                      0                       # Number of times TLB was flushed by MVA & ASID
system.cpu.itb.flushTlbAsid                         0                       # Number of times TLB was flushed by ASID
system.cpu.itb.flushedEntries                       0                       # Number of entries that have been flushed from TLB
system.cpu.itb.alignFaults                          0                       # Number of TLB faults due to alignment restrictions
system.cpu.itb.prefetchFaults                       0                       # Number of TLB faults due to prefetch
system.cpu.itb.domainFaults                         0                       # Number of TLB faults due to domain restrictions
system.cpu.itb.permsFaults                          0                       # Number of TLB faults due to permissions restrictions
system.cpu.itb.readAccesses                         0                       # DTB read accesses
system.cpu.itb.writeAccesses                        0                       # DTB write accesses
system.cpu.itb.instAccesses                         0                       # ITB inst accesses
system.cpu.itb.hits                                 0                       # Total TLB (inst and data) hits
system.cpu.itb.misses                               0                       # Total TLB (inst and data) misses
system.cpu.itb.accesses                             0                       # Total TLB (inst and data) accesses
system.cpu.itb.stage2_mmu.stage2_tlb.instHits            0                       # ITB inst hits
system.cpu.itb.stage2_mmu.stage2_tlb.instMisses            0                       # ITB inst misses
system.cpu.itb.stage2_mmu.stage2_tlb.readHits            0                       # DTB read hits
system.cpu.itb.stage2_mmu.stage2_tlb.readMisses            0                       # DTB read misses
system.cpu.itb.stage2_mmu.stage2_tlb.writeHits            0                       # DTB write hits
system.cpu.itb.stage2_mmu.stage2_tlb.writeMisses            0                       # DTB write misses
system.cpu.itb.stage2_mmu.stage2_tlb.inserts            0                       # Number of times an entry is inserted into the TLB
system.cpu.itb.stage2_mmu.stage2_tlb.flushTlb            0                       # Number of times complete TLB was flushed
system.cpu.itb.stage2_mmu.stage2_tlb.flushTlbMva            0                       # Number of times TLB was flushed by MVA
system.cpu.itb.stage2_mmu.stage2_tlb.flushTlbMvaAsid            0                       # Number of times TLB was flushed by MVA & ASID
system.cpu.itb.stage2_mmu.stage2_tlb.flushTlbAsid            0                       # Number of times TLB was flushed by ASID
system.cpu.itb.stage2_mmu.stage2_tlb.flushedEntries            0                       # Number of entries that have been flushed from TLB
system.cpu.itb.stage2_mmu.stage2_tlb.alignFaults            0                       # Number of TLB faults due to alignment restrictions
system.cpu.itb.stage2_mmu.stage2_tlb.prefetchFaults            0                       # Number of TLB faults due to prefetch
system.cpu.itb.stage2_mmu.stage2_tlb.domainFaults            0                       # Number of TLB faults due to domain restrictions
system.cpu.itb.stage2_mmu.stage2_tlb.permsFaults            0                       # Number of TLB faults due to permissions restrictions
system.cpu.itb.stage2_mmu.stage2_tlb.readAccesses            0                       # DTB read accesses
system.cpu.itb.stage2_mmu.stage2_tlb.writeAccesses            0                       # DTB write accesses
system.cpu.itb.stage2_mmu.stage2_tlb.instAccesses            0                       # ITB inst accesses
system.cpu.itb.stage2_mmu.stage2_tlb.hits            0                       # Total TLB (inst and data) hits
system.cpu.itb.stage2_mmu.stage2_tlb.misses            0                       # Total TLB (inst and data) misses
system.cpu.itb.stage2_mmu.stage2_tlb.accesses            0                       # Total TLB (inst and data) accesses
system.cpu.itb.stage2_mmu.stage2_tlb.walker.walks            0                       # Table walker walks requested
system.cpu.itb.stage2_mmu.stage2_tlb.walker.requestOrigin_Requested::Data            0                       # Table walker requests started/completed, data/inst
system.cpu.itb.stage2_mmu.stage2_tlb.walker.requestOrigin_Requested::Inst            0                       # Table walker requests started/completed, data/inst
system.cpu.itb.stage2_mmu.stage2_tlb.walker.requestOrigin_Requested::total            0                       # Table walker requests started/completed, data/inst
system.cpu.itb.stage2_mmu.stage2_tlb.walker.requestOrigin_Completed::Data            0                       # Table walker requests started/completed, data/inst
system.cpu.itb.stage2_mmu.stage2_tlb.walker.requestOrigin_Completed::Inst            0                       # Table walker requests started/completed, data/inst
system.cpu.itb.stage2_mmu.stage2_tlb.walker.requestOrigin_Completed::total            0                       # Table walker requests started/completed, data/inst
system.cpu.itb.stage2_mmu.stage2_tlb.walker.requestOrigin::total            0                       # Table walker requests started/completed, data/inst
system.cpu.itb.stage2_mmu.stage2_tlb.walker.power_state.pwrStateResidencyTicks::UNDEFINED 709309454000                       # Cumulative time (in ticks) in various power states
system.cpu.itb.walker.walks                         0                       # Table walker walks requested
system.cpu.itb.walker.requestOrigin_Requested::Data            0                       # Table walker requests started/completed, data/inst
system.cpu.itb.walker.requestOrigin_Requested::Inst            0                       # Table walker requests started/completed, data/inst
system.cpu.itb.walker.requestOrigin_Requested::total            0                       # Table walker requests started/completed, data/inst
system.cpu.itb.walker.requestOrigin_Completed::Data            0                       # Table walker requests started/completed, data/inst
system.cpu.itb.walker.requestOrigin_Completed::Inst            0                       # Table walker requests started/completed, data/inst
system.cpu.itb.walker.requestOrigin_Completed::total            0                       # Table walker requests started/completed, data/inst
system.cpu.itb.walker.requestOrigin::total            0                       # Table walker requests started/completed, data/inst
system.cpu.itb.walker.power_state.pwrStateResidencyTicks::UNDEFINED 709309454000                       # Cumulative time (in ticks) in various power states
system.cpu.power_state.pwrStateResidencyTicks::ON 709309454000                       # Cumulative time (in ticks) in various power states
system.cpu.thread_0.numInsts                100000001                       # Number of Instructions committed
system.cpu.thread_0.numOps                  184812628                       # Number of Ops committed
system.cpu.thread_0.numMemRefs                      0                       # Number of Memory References
system.cpu_clk_domain.clock                      1000                       # Clock period in ticks
system.cpu_voltage_domain.voltage                   1                       # Voltage in Volts
system.l2.demand_hits::.cpu.inst                   34                       # number of demand (read+write) hits
system.l2.demand_hits::.cpu.data                   44                       # number of demand (read+write) hits
system.l2.demand_hits::total                       78                       # number of demand (read+write) hits
system.l2.overall_hits::.cpu.inst                  34                       # number of overall hits
system.l2.overall_hits::.cpu.data                  44                       # number of overall hits
system.l2.overall_hits::total                      78                       # number of overall hits
system.l2.demand_misses::.cpu.inst                720                       # number of demand (read+write) misses
system.l2.demand_misses::.cpu.data            5300226                       # number of demand (read+write) misses
system.l2.demand_misses::total                5300946                       # number of demand (read+write) misses
system.l2.overall_misses::.cpu.inst               720                       # number of overall misses
system.l2.overall_misses::.cpu.data           5300226                       # number of overall misses
system.l2.overall_misses::total               5300946                       # number of overall misses
system.l2.demand_miss_latency::.cpu.inst     72090000                       # number of demand (read+write) miss cycles
system.l2.demand_miss_latency::.cpu.data 529474537000                       # number of demand (read+write) miss cycles
system.l2.demand_miss_latency::total     529546627000                       # number of demand (read+write) miss cycles
system.l2.overall_miss_latency::.cpu.inst     72090000                       # number of overall miss cycles
system.l2.overall_miss_latency::.cpu.data 529474537000                       # number of overall miss cycles
system.l2.overall_miss_latency::total    529546627000                       # number of overall miss cycles
system.l2.demand_accesses::.cpu.inst              754                       # number of demand (read+write) accesses
system.l2.demand_accesses::.cpu.data          5300270                       # number of demand (read+write) accesses
system.l2.demand_accesses::total              5301024                       # number of demand (read+write) accesses
system.l2.overall_accesses::.cpu.inst             754                       # number of overall (read+write) accesses
system.l2.overall_accesses::.cpu.data         5300270                       # number of overall (read+write) accesses
system.l2.overall_accesses::total             5301024                       # number of overall (read+write) accesses
system.l2.demand_miss_rate::.cpu.inst        0.954907                       # miss rate for demand accesses
system.l2.demand_miss_rate::.cpu.data        0.999992                       # miss rate for demand accesses
system.l2.demand_miss_rate::total            0.999985                       # miss rate for demand accesses
system.l2.overall_miss_rate::.cpu.inst       0.954907                       # miss rate for overall accesses
system.l2.overall_miss_rate::.cpu.data       0.999992                       # miss rate for overall accesses
system.l2.overall_miss_rate::total           0.999985                       # miss rate for overall accesses
system.l2.demand_avg_miss_latency::.cpu.inst       100125                       # average overall miss latency
system.l2.demand_avg_miss_latency::.cpu.data 99896.596296                       # average overall miss latency
system.l2.demand_avg_miss_latency::total 99896.627319                       # average overall miss latency
system.l2.overall_avg_miss_latency::.cpu.inst       100125                       # average overall miss latency
system.l2.overall_avg_miss_latency::.cpu.data 99896.596296                       # average overall miss latency
system.l2.overall_avg_miss_latency::total 99896.627319                       # average overall miss latency
system.l2.blocked_cycles::no_mshrs                  0                       # number of cycles access was blocked
system.l2.blocked_cycles::no_targets                0                       # number of cycles access was blocked
system.l2.blocked::no_mshrs                         0                       # number of cycles access was blocked
system.l2.blocked::no_targets                       0                       # number of cycles access was blocked
system.l2.avg_blocked_cycles::no_mshrs            nan                       # average number of cycles each access was blocked
system.l2.avg_blocked_cycles::no_targets          nan                       # average number of cycles each access was blocked
system.l2.writebacks::.writebacks             5267302                       # number of writebacks
system.l2.writebacks::total                   5267302                       # number of writebacks
system.l2.demand_mshr_hits::.cpu.data               2                       # number of demand (read+write) MSHR hits
system.l2.demand_mshr_hits::total                   2                       # number of demand (read+write) MSHR hits
system.l2.overall_mshr_hits::.cpu.data              2                       # number of overall MSHR hits
system.l2.overall_mshr_hits::total                  2                       # number of overall MSHR hits
system.l2.demand_mshr_misses::.cpu.inst           720                       # number of demand (read+write) MSHR misses
system.l2.demand_mshr_misses::.cpu.data       5300224                       # number of demand (read+write) MSHR misses
system.l2.demand_mshr_misses::total           5300944                       # number of demand (read+write) MSHR misses
system.l2.overall_mshr_misses::.cpu.inst          720                       # number of overall MSHR misses
system.l2.overall_mshr_misses::.cpu.data      5300224                       # number of overall MSHR misses
system.l2.overall_mshr_misses::total          5300944                       # number of overall MSHR misses
system.l2.demand_mshr_miss_latency::.cpu.inst     57690000                       # number of demand (read+write) MSHR miss cycles
system.l2.demand_mshr_miss_latency::.cpu.data 423469886000                       # number of demand (read+write) MSHR miss cycles
system.l2.demand_mshr_miss_latency::total 423527576000                       # number of demand (read+write) MSHR miss cycles
system.l2.overall_mshr_miss_latency::.cpu.inst     57690000                       # number of overall MSHR miss cycles
system.l2.overall_mshr_miss_latency::.cpu.data 423469886000                       # number of overall MSHR miss cycles
system.l2.overall_mshr_miss_latency::total 423527576000                       # number of overall MSHR miss cycles
system.l2.demand_mshr_miss_rate::.cpu.inst     0.954907                       # mshr miss rate for demand accesses
system.l2.demand_mshr_miss_rate::.cpu.data     0.999991                       # mshr miss rate for demand accesses
system.l2.demand_mshr_miss_rate::total       0.999985                       # mshr miss rate for demand accesses
system.l2.overall_mshr_miss_rate::.cpu.inst     0.954907                       # mshr miss rate for overall accesses
system.l2.overall_mshr_miss_rate::.cpu.data     0.999991                       # mshr miss rate for overall accesses
system.l2.overall_mshr_miss_rate::total      0.999985                       # mshr miss rate for overall accesses
system.l2.demand_avg_mshr_miss_latency::.cpu.inst        80125                       # average overall mshr miss latency
system.l2.demand_avg_mshr_miss_latency::.cpu.data 79896.601729                       # average overall mshr miss latency
system.l2.demand_avg_mshr_miss_latency::total 79896.632751                       # average overall mshr miss latency
system.l2.overall_avg_mshr_miss_latency::.cpu.inst        80125                       # average overall mshr miss latency
system.l2.overall_avg_mshr_miss_latency::.cpu.data 79896.601729                       # average overall mshr miss latency
system.l2.overall_avg_mshr_miss_latency::total 79896.632751                       # average overall mshr miss latency
system.l2.replacements                        5268318                       # number of replacements
system.l2.WritebackDirty_hits::.writebacks      5299072                       # number of WritebackDirty hits
system.l2.WritebackDirty_hits::total          5299072                       # number of WritebackDirty hits
system.l2.WritebackDirty_accesses::.writebacks      5299072                       # number of WritebackDirty accesses(hits+misses)
system.l2.WritebackDirty_accesses::total      5299072                       # number of WritebackDirty accesses(hits+misses)
system.l2.WritebackClean_hits::.writebacks          312                       # number of WritebackClean hits
system.l2.WritebackClean_hits::total              312                       # number of WritebackClean hits
system.l2.WritebackClean_accesses::.writebacks          312                       # number of WritebackClean accesses(hits+misses)
system.l2.WritebackClean_accesses::total          312                       # number of WritebackClean accesses(hits+misses)
system.l2.ReadExReq_hits::.cpu.data                12                       # number of ReadExReq hits
system.l2.ReadExReq_hits::total                    12                       # number of ReadExReq hits
system.l2.ReadExReq_misses::.cpu.data         5300036                       # number of ReadExReq misses
system.l2.ReadExReq_misses::total             5300036                       # number of ReadExReq misses
system.l2.ReadExReq_miss_latency::.cpu.data 529454587000                       # number of ReadExReq miss cycles
system.l2.ReadExReq_miss_latency::total  529454587000                       # number of ReadExReq miss cycles
system.l2.ReadExReq_accesses::.cpu.data       5300048                       # number of ReadExReq accesses(hits+misses)
system.l2.ReadExReq_accesses::total           5300048                       # number of ReadExReq accesses(hits+misses)
system.l2.ReadExReq_miss_rate::.cpu.data     0.999998                       # miss rate for ReadExReq accesses
system.l2.ReadExReq_miss_rate::total         0.999998                       # miss rate for ReadExReq accesses
system.l2.ReadExReq_avg_miss_latency::.cpu.data 99896.413345                       # average ReadExReq miss latency
system.l2.ReadExReq_avg_miss_latency::total 99896.413345                       # average ReadExReq miss latency
system.l2.ReadExReq_mshr_misses::.cpu.data      5300036                       # number of ReadExReq MSHR misses
system.l2.ReadExReq_mshr_misses::total        5300036                       # number of ReadExReq MSHR misses
system.l2.ReadExReq_mshr_miss_latency::.cpu.data 423453867000                       # number of ReadExReq MSHR miss cycles
system.l2.ReadExReq_mshr_miss_latency::total 423453867000                       # number of ReadExReq MSHR miss cycles
system.l2.ReadExReq_mshr_miss_rate::.cpu.data     0.999998                       # mshr miss rate for ReadExReq accesses
system.l2.ReadExReq_mshr_miss_rate::total     0.999998                       # mshr miss rate for ReadExReq accesses
system.l2.ReadExReq_avg_mshr_miss_latency::.cpu.data 79896.413345                       # average ReadExReq mshr miss latency
system.l2.ReadExReq_avg_mshr_miss_latency::total 79896.413345                       # average ReadExReq mshr miss latency
system.l2.ReadCleanReq_hits::.cpu.inst             34                       # number of ReadCleanReq hits
system.l2.ReadCleanReq_hits::total                 34                       # number of ReadCleanReq hits
system.l2.ReadCleanReq_misses::.cpu.inst          720                       # number of ReadCleanReq misses
system.l2.ReadCleanReq_misses::total              720                       # number of ReadCleanReq misses
system.l2.ReadCleanReq_miss_latency::.cpu.inst     72090000                       # number of ReadCleanReq miss cycles
system.l2.ReadCleanReq_miss_latency::total     72090000                       # number of ReadCleanReq miss cycles
system.l2.ReadCleanReq_accesses::.cpu.inst          754                       # number of ReadCleanReq accesses(hits+misses)
system.l2.ReadCleanReq_accesses::total            754                       # number of ReadCleanReq accesses(hits+misses)
system.l2.ReadCleanReq_miss_rate::.cpu.inst     0.954907                       # miss rate for ReadCleanReq accesses
system.l2.ReadCleanReq_miss_rate::total      0.954907                       # miss rate for ReadCleanReq accesses
system.l2.ReadCleanReq_avg_miss_latency::.cpu.inst       100125                       # average ReadCleanReq miss latency
system.l2.ReadCleanReq_avg_miss_latency::total       100125                       # average ReadCleanReq miss latency
system.l2.ReadCleanReq_mshr_misses::.cpu.inst          720                       # number of ReadCleanReq MSHR misses
system.l2.ReadCleanReq_mshr_misses::total          720                       # number of ReadCleanReq MSHR misses
system.l2.ReadCleanReq_mshr_miss_latency::.cpu.inst     57690000                       # number of ReadCleanReq MSHR miss cycles
system.l2.ReadCleanReq_mshr_miss_latency::total     57690000                       # number of ReadCleanReq MSHR miss cycles
system.l2.ReadCleanReq_mshr_miss_rate::.cpu.inst     0.954907                       # mshr miss rate for ReadCleanReq accesses
system.l2.ReadCleanReq_mshr_miss_rate::total     0.954907                       # mshr miss rate for ReadCleanReq accesses
system.l2.ReadCleanReq_avg_mshr_miss_latency::.cpu.inst        80125                       # average ReadCleanReq mshr miss latency
system.l2.ReadCleanReq_avg_mshr_miss_latency::total        80125                       # average ReadCleanReq mshr miss latency
system.l2.ReadSharedReq_hits::.cpu.data            32                       # number of ReadSharedReq hits
system.l2.ReadSharedReq_hits::total                32                       # number of ReadSharedReq hits
system.l2.ReadSharedReq_misses::.cpu.data          190                       # number of ReadSharedReq misses
system.l2.ReadSharedReq_misses::total             190                       # number of ReadSharedReq misses
system.l2.ReadSharedReq_miss_latency::.cpu.data     19950000                       # number of ReadSharedReq miss cycles
system.l2.ReadSharedReq_miss_latency::total     19950000                       # number of ReadSharedReq miss cycles
system.l2.ReadSharedReq_accesses::.cpu.data          222                       # number of ReadSharedReq accesses(hits+misses)
system.l2.ReadSharedReq_accesses::total           222                       # number of ReadSharedReq accesses(hits+misses)
system.l2.ReadSharedReq_miss_rate::.cpu.data     0.855856                       # miss rate for ReadSharedReq accesses
system.l2.ReadSharedReq_miss_rate::total     0.855856                       # miss rate for ReadSharedReq accesses
system.l2.ReadSharedReq_avg_miss_latency::.cpu.data       105000                       # average ReadSharedReq miss latency
system.l2.ReadSharedReq_avg_miss_latency::total       105000                       # average ReadSharedReq miss latency
system.l2.ReadSharedReq_mshr_hits::.cpu.data            2                       # number of ReadSharedReq MSHR hits
system.l2.ReadSharedReq_mshr_hits::total            2                       # number of ReadSharedReq MSHR hits
system.l2.ReadSharedReq_mshr_misses::.cpu.data          188                       # number of ReadSharedReq MSHR misses
system.l2.ReadSharedReq_mshr_misses::total          188                       # number of ReadSharedReq MSHR misses
system.l2.ReadSharedReq_mshr_miss_latency::.cpu.data     16019000                       # number of ReadSharedReq MSHR miss cycles
system.l2.ReadSharedReq_mshr_miss_latency::total     16019000                       # number of ReadSharedReq MSHR miss cycles
system.l2.ReadSharedReq_mshr_miss_rate::.cpu.data     0.846847                       # mshr miss rate for ReadSharedReq accesses
system.l2.ReadSharedReq_mshr_miss_rate::total     0.846847                       # mshr miss rate for ReadSharedReq accesses
system.l2.ReadSharedReq_avg_mshr_miss_latency::.cpu.data 85207.446809                       # average ReadSharedReq mshr miss latency
system.l2.ReadSharedReq_avg_mshr_miss_latency::total 85207.446809                       # average ReadSharedReq mshr miss latency
system.l2.power_state.pwrStateResidencyTicks::UNDEFINED 709309454000                       # Cumulative time (in ticks) in various power states
system.l2.tags.tagsinuse                 32478.061925                       # Cycle average of tags in use
system.l2.tags.total_refs                    10600557                       # Total number of references to valid blocks.
system.l2.tags.sampled_refs                   5301086                       # Sample count of references to valid blocks.
system.l2.tags.avg_refs                      1.999695                       # Average number of references to valid blocks.
system.l2.tags.warmup_cycle                     87000                       # Cycle when the warmup percentage was hit.
system.l2.tags.occ_blocks::.writebacks       0.798961                       # Average occupied blocks per requestor
system.l2.tags.occ_blocks::.cpu.inst         6.353220                       # Average occupied blocks per requestor
system.l2.tags.occ_blocks::.cpu.data     32470.909745                       # Average occupied blocks per requestor
system.l2.tags.occ_percent::.writebacks      0.000024                       # Average percentage of cache occupancy
system.l2.tags.occ_percent::.cpu.inst        0.000194                       # Average percentage of cache occupancy
system.l2.tags.occ_percent::.cpu.data        0.990934                       # Average percentage of cache occupancy
system.l2.tags.occ_percent::total            0.991152                       # Average percentage of cache occupancy
system.l2.tags.occ_task_id_blocks::1024         32768                       # Occupied blocks per task id
system.l2.tags.age_task_id_blocks_1024::0           76                       # Occupied blocks per task id
system.l2.tags.age_task_id_blocks_1024::1          677                       # Occupied blocks per task id
system.l2.tags.age_task_id_blocks_1024::2         6782                       # Occupied blocks per task id
system.l2.tags.age_task_id_blocks_1024::3        25233                       # Occupied blocks per task id
system.l2.tags.occ_task_id_percent::1024            1                       # Percentage of cache occupancy per task id
system.l2.tags.tag_accesses                  90105558                       # Number of tag accesses
system.l2.tags.data_accesses                 90105558                       # Number of data accesses
system.l2.tags.power_state.pwrStateResidencyTicks::UNDEFINED 709309454000                       # Cumulative time (in ticks) in various power states
system.mem_ctrls.avgPriority_.writebacks::samples   5267302.00                       # Average QoS priority value for accepted requests
system.mem_ctrls.avgPriority_.cpu.inst::samples       720.00                       # Average QoS priority value for accepted requests
system.mem_ctrls.avgPriority_.cpu.data::samples   5300224.00                       # Average QoS priority value for accepted requests
system.mem_ctrls.priorityMinLatency      0.000000018750                       # per QoS priority minimum request to response latency (s)
system.mem_ctrls.priorityMaxLatency      0.001242114500                       # per QoS priority maximum request to response latency (s)
system.mem_ctrls.numReadWriteTurnArounds       328725                       # Number of turnarounds from READ to WRITE
system.mem_ctrls.numWriteReadTurnArounds       328725                       # Number of turnarounds from WRITE to READ
system.mem_ctrls.numStayReadState            15720024                       # Number of times bus staying in READ state
system.mem_ctrls.numStayWriteState            4938668                       # Number of times bus staying in WRITE state
system.mem_ctrls.readReqs                     5300944                       # Number of read requests accepted
system.mem_ctrls.writeReqs                    5267302                       # Number of write requests accepted
system.mem_ctrls.readBursts                   5300944                       # Number of controller read bursts, including those serviced by the write queue
system.mem_ctrls.writeBursts                  5267302                       # Number of controller write bursts, including those merged in the write queue
system.mem_ctrls.servicedByWrQ                      0                       # Number of controller read bursts serviced by the write queue
system.mem_ctrls.mergedWrBursts                     0                       # Number of controller write bursts merged with an existing one
system.mem_ctrls.neitherReadNorWriteReqs            0                       # Number of requests that are neither read nor write
system.mem_ctrls.avgRdQLen                       1.00                       # Average read queue length when enqueuing
system.mem_ctrls.avgWrQLen                      25.49                       # Average write queue length when enqueuing
system.mem_ctrls.numRdRetry                         0                       # Number of times read queue was full causing retry
system.mem_ctrls.numWrRetry                         0                       # Number of times write queue was full causing retry
system.mem_ctrls.readPktSize::0                     0                       # Read request sizes (log2)
system.mem_ctrls.readPktSize::1                     0                       # Read request sizes (log2)
system.mem_ctrls.readPktSize::2                     0                       # Read request sizes (log2)
system.mem_ctrls.readPktSize::3                     0                       # Read request sizes (log2)
system.mem_ctrls.readPktSize::4                     0                       # Read request sizes (log2)
system.mem_ctrls.readPktSize::5                     0                       # Read request sizes (log2)
system.mem_ctrls.readPktSize::6               5300944                       # Read request sizes (log2)
system.mem_ctrls.writePktSize::0                    0                       # Write request sizes (log2)
system.mem_ctrls.writePktSize::1                    0                       # Write request sizes (log2)
system.mem_ctrls.writePktSize::2                    0                       # Write request sizes (log2)
system.mem_ctrls.writePktSize::3                    0                       # Write request sizes (log2)
[...]
system.mem_ctrls.dram.bw_write::.writebacks    475261293                       # Write bandwidth from this memory (bytes/s)
system.mem_ctrls.dram.bw_write::total       475261293                       # Write bandwidth from this memory (bytes/s)
system.mem_ctrls.dram.bw_total::.writebacks    475261293                       # Total bandwidth to/from this memory (bytes/s)
system.mem_ctrls.dram.bw_total::.cpu.inst        64965                       # Total bandwidth to/from this memory (bytes/s)
system.mem_ctrls.dram.bw_total::.cpu.data    478231799                       # Total bandwidth to/from this memory (bytes/s)
system.mem_ctrls.dram.bw_total::total       953558056                       # Total bandwidth to/from this memory (bytes/s)
system.mem_ctrls.dram.readBursts              5300944                       # Number of DRAM read bursts
system.mem_ctrls.dram.writeBursts             5267276                       # Number of DRAM write bursts
system.mem_ctrls.dram.perBankRdBursts::0       331302                       # Per bank write bursts
system.mem_ctrls.dram.perBankRdBursts::1       331365                       # Per bank write bursts
system.mem_ctrls.dram.perBankRdBursts::2       331154                       # Per bank write bursts
system.mem_ctrls.dram.perBankRdBursts::3       331272                       # Per bank write bursts
system.mem_ctrls.dram.perBankRdBursts::4       331429                       # Per bank write bursts
system.mem_ctrls.dram.perBankRdBursts::5       331547                       # Per bank write bursts
system.mem_ctrls.dram.perBankRdBursts::6       331405                       # Per bank write bursts
system.mem_ctrls.dram.perBankRdBursts::7       331336                       # Per bank write bursts
system.mem_ctrls.dram.perBankRdBursts::8       331379                       # Per bank write bursts
system.mem_ctrls.dram.perBankRdBursts::9       331357                       # Per bank write bursts
system.mem_ctrls.dram.perBankRdBursts::10       331213                       # Per bank write bursts
system.mem_ctrls.dram.perBankRdBursts::11       331263                       # Per bank write bursts
system.mem_ctrls.dram.perBankRdBursts::12       331193                       # Per bank write bursts
system.mem_ctrls.dram.perBankRdBursts::13       331162                       # Per bank write bursts
system.mem_ctrls.dram.perBankRdBursts::14       331271                       # Per bank write bursts
system.mem_ctrls.dram.perBankRdBursts::15       331296                       # Per bank write bursts
system.mem_ctrls.dram.perBankWrBursts::0       329206                       # Per bank write bursts
system.mem_ctrls.dram.perBankWrBursts::1       329198                       # Per bank write bursts
system.mem_ctrls.dram.perBankWrBursts::2       329070                       # Per bank write bursts
system.mem_ctrls.dram.perBankWrBursts::3       329161                       # Per bank write bursts
system.mem_ctrls.dram.perBankWrBursts::4       329332                       # Per bank write bursts
system.mem_ctrls.dram.perBankWrBursts::5       329420                       # Per bank write bursts
system.mem_ctrls.dram.perBankWrBursts::6       329321                       # Per bank write bursts
system.mem_ctrls.dram.perBankWrBursts::7       329264                       # Per bank write bursts
system.mem_ctrls.dram.perBankWrBursts::8       329274                       # Per bank write bursts
system.mem_ctrls.dram.perBankWrBursts::9       329261                       # Per bank write bursts
system.mem_ctrls.dram.perBankWrBursts::10       329124                       # Per bank write bursts
system.mem_ctrls.dram.perBankWrBursts::11       329088                       # Per bank write bursts
system.mem_ctrls.dram.perBankWrBursts::12       329088                       # Per bank write bursts
system.mem_ctrls.dram.perBankWrBursts::13       329089                       # Per bank write bursts
system.mem_ctrls.dram.perBankWrBursts::14       329166                       # Per bank write bursts
system.mem_ctrls.dram.perBankWrBursts::15       329214                       # Per bank write bursts
system.mem_ctrls.dram.totQLat             52400392500                       # Total ticks spent queuing
system.mem_ctrls.dram.totBusLat           26504720000                       # Total ticks spent in databus transfers
system.mem_ctrls.dram.totMemAccLat       151793092500                       # Total ticks spent from burst creation until serviced by the DRAM
system.mem_ctrls.dram.avgQLat                 9885.11                       # Average queueing delay per DRAM burst
system.mem_ctrls.dram.avgBusLat               5000.00                       # Average bus latency per DRAM burst
system.mem_ctrls.dram.avgMemAccLat           28635.11                       # Average memory access latency per DRAM burst
system.mem_ctrls.dram.readRowHits             4843118                       # Number of row buffer hits during reads
system.mem_ctrls.dram.writeRowHits            4898036                       # Number of row buffer hits during writes
system.mem_ctrls.dram.readRowHitRate            91.36                       # Row buffer hit rate for reads
system.mem_ctrls.dram.writeRowHitRate           92.99                       # Row buffer hit rate for writes
system.mem_ctrls.dram.bytesPerActivate::samples       827064                       # Bytes accessed per row activation
system.mem_ctrls.dram.bytesPerActivate::mean   817.791010                       # Bytes accessed per row activation
system.mem_ctrls.dram.bytesPerActivate::gmean   705.195652                       # Bytes accessed per row activation
system.mem_ctrls.dram.bytesPerActivate::stdev   308.083216                       # Bytes accessed per row activation
system.mem_ctrls.dram.bytesPerActivate::0-127        33218      4.02%      4.02% # Bytes accessed per row activation
system.mem_ctrls.dram.bytesPerActivate::128-255        23369      2.83%      6.84% # Bytes accessed per row activation
system.mem_ctrls.dram.bytesPerActivate::256-383        39733      4.80%     11.65% # Bytes accessed per row activation
system.mem_ctrls.dram.bytesPerActivate::384-511        59331      7.17%     18.82% # Bytes accessed per row activation
system.mem_ctrls.dram.bytesPerActivate::512-639        59775      7.23%     26.05% # Bytes accessed per row activation
system.mem_ctrls.dram.bytesPerActivate::640-767        39077      4.72%     30.77% # Bytes accessed per row activation
system.mem_ctrls.dram.bytesPerActivate::768-895        26915      3.25%     34.03% # Bytes accessed per row activation
system.mem_ctrls.dram.bytesPerActivate::896-1023        35680      4.31%     38.34% # Bytes accessed per row activation
system.mem_ctrls.dram.bytesPerActivate::1024-1151       509966     61.66%    100.00% # Bytes accessed per row activation
system.mem_ctrls.dram.bytesPerActivate::total       827064                       # Bytes accessed per row activation
system.mem_ctrls.dram.bytesRead             339260416                       # Total number of bytes read from DRAM
system.mem_ctrls.dram.bytesWritten          337105664                       # Total number of bytes written to DRAM
system.mem_ctrls.dram.avgRdBW              478.296763                       # Average DRAM read bandwidth in MiBytes/s
system.mem_ctrls.dram.avgWrBW              475.258947                       # Average DRAM write bandwidth in MiBytes/s
system.mem_ctrls.dram.peakBW                 12800.00                       # Theoretical peak bandwidth in MiByte/s
system.mem_ctrls.dram.busUtil                    7.45                       # Data bus utilization in percentage
system.mem_ctrls.dram.busUtilRead                3.74                       # Data bus utilization in percentage for reads
system.mem_ctrls.dram.busUtilWrite               3.71                       # Data bus utilization in percentage for writes
system.mem_ctrls.dram.pageHitRate               92.17                       # Row buffer hit rate, read and write combined
system.mem_ctrls.dram.power_state.pwrStateResidencyTicks::UNDEFINED 709309454000                       # Cumulative time (in ticks) in various power states
system.mem_ctrls.dram.rank0.actEnergy      2952597060                       # Energy for activate commands per rank (pJ)
system.mem_ctrls.dram.rank0.preEnergy      1569334965                       # Energy for precharge commands per rank (pJ)
system.mem_ctrls.dram.rank0.readEnergy    18926783400                       # Energy for read commands per rank (pJ)
system.mem_ctrls.dram.rank0.writeEnergy   13749333840                       # Energy for write commands per rank (pJ)
system.mem_ctrls.dram.rank0.refreshEnergy 55991860080.000008                       # Energy for refresh commands per rank (pJ)
system.mem_ctrls.dram.rank0.actBackEnergy 167386926750                       # Energy for active background per rank (pJ)
system.mem_ctrls.dram.rank0.preBackEnergy 131417418720                       # Energy for precharge background per rank (pJ)
system.mem_ctrls.dram.rank0.actPowerDownEnergy            0                       # Energy for active power-down per rank (pJ)
system.mem_ctrls.dram.rank0.prePowerDownEnergy            0                       # Energy for precharge power-down per rank (pJ)
system.mem_ctrls.dram.rank0.selfRefreshEnergy            0                       # Energy for self refresh per rank (pJ)
system.mem_ctrls.dram.rank0.totalEnergy  391994254815                       # Total energy per rank (pJ)
system.mem_ctrls.dram.rank0.averagePower   552.642084                       # Core power per rank (mW)
system.mem_ctrls.dram.rank0.totalIdleTime            0                       # Total Idle time Per DRAM Rank
system.mem_ctrls.dram.rank0.pwrStateTime::IDLE 337116896000                       # Time in different power states
system.mem_ctrls.dram.rank0.pwrStateTime::REF  23685220000                       # Time in different power states
system.mem_ctrls.dram.rank0.pwrStateTime::SREF            0                       # Time in different power states
system.mem_ctrls.dram.rank0.pwrStateTime::PRE_PDN            0                       # Time in different power states
system.mem_ctrls.dram.rank0.pwrStateTime::ACT 348507338000                       # Time in different power states
system.mem_ctrls.dram.rank0.pwrStateTime::ACT_PDN            0                       # Time in different power states
system.mem_ctrls.dram.rank1.actEnergy      2952654180                       # Energy for activate commands per rank (pJ)
system.mem_ctrls.dram.rank1.preEnergy      1569372915                       # Energy for precharge commands per rank (pJ)
system.mem_ctrls.dram.rank1.readEnergy    18921956760                       # Energy for read commands per rank (pJ)
system.mem_ctrls.dram.rank1.writeEnergy   13745846880                       # Energy for write commands per rank (pJ)
system.mem_ctrls.dram.rank1.refreshEnergy 55991860080.000008                       # Energy for refresh commands per rank (pJ)
system.mem_ctrls.dram.rank1.actBackEnergy 167380153440                       # Energy for active background per rank (pJ)
system.mem_ctrls.dram.rank1.preBackEnergy 131423122560                       # Energy for precharge background per rank (pJ)
system.mem_ctrls.dram.rank1.actPowerDownEnergy            0                       # Energy for active power-down per rank (pJ)
system.mem_ctrls.dram.rank1.prePowerDownEnergy            0                       # Energy for precharge power-down per rank (pJ)
system.mem_ctrls.dram.rank1.selfRefreshEnergy            0                       # Energy for self refresh per rank (pJ)
system.mem_ctrls.dram.rank1.totalEnergy  391984966815                       # Total energy per rank (pJ)
system.mem_ctrls.dram.rank1.averagePower   552.628990                       # Core power per rank (mW)
system.mem_ctrls.dram.rank1.totalIdleTime            0                       # Total Idle time Per DRAM Rank
system.mem_ctrls.dram.rank1.pwrStateTime::IDLE 337132429750                       # Time in different power states
system.mem_ctrls.dram.rank1.pwrStateTime::REF  23685220000                       # Time in different power states
system.mem_ctrls.dram.rank1.pwrStateTime::SREF            0                       # Time in different power states
system.mem_ctrls.dram.rank1.pwrStateTime::PRE_PDN            0                       # Time in different power states
system.mem_ctrls.dram.rank1.pwrStateTime::ACT 348491804250                       # Time in different power states
system.mem_ctrls.dram.rank1.pwrStateTime::ACT_PDN            0                       # Time in different power states
system.mem_ctrls.power_state.pwrStateResidencyTicks::UNDEFINED 709309454000                       # Cumulative time (in ticks) in various power states
system.membus.trans_dist::ReadResp                908                       # Transaction distribution
system.membus.trans_dist::WritebackDirty      5267302                       # Transaction distribution
system.membus.trans_dist::CleanEvict              435                       # Transaction distribution
system.membus.trans_dist::ReadExReq           5300036                       # Transaction distribution
system.membus.trans_dist::ReadExResp          5300036                       # Transaction distribution
system.membus.trans_dist::ReadSharedReq           908                       # Transaction distribution
system.membus.pkt_count_system.l2.mem_side_port::system.mem_ctrls.port     15869625                       # Packet count per connected requestor and responder (bytes)
system.membus.pkt_count::total               15869625                       # Packet count per connected requestor and responder (bytes)
system.membus.pkt_size_system.l2.mem_side_port::system.mem_ctrls.port    676367744                       # Cumulative packet size per connected requestor and responder (bytes)
system.membus.pkt_size::total               676367744                       # Cumulative packet size per connected requestor and responder (bytes)
system.membus.snoops                                0                       # Total snoops (count)
system.membus.snoopTraffic                          0                       # Total snoop traffic (bytes)
system.membus.snoop_fanout::samples           5300944                       # Request fanout histogram
system.membus.snoop_fanout::mean                    0                       # Request fanout histogram
system.membus.snoop_fanout::stdev                   0                       # Request fanout histogram
system.membus.snoop_fanout::underflows              0      0.00%      0.00% # Request fanout histogram
system.membus.snoop_fanout::0                 5300944    100.00%    100.00% # Request fanout histogram
system.membus.snoop_fanout::1                       0      0.00%    100.00% # Request fanout histogram
system.membus.snoop_fanout::overflows               0      0.00%    100.00% # Request fanout histogram
system.membus.snoop_fanout::min_value               0                       # Request fanout histogram
system.membus.snoop_fanout::max_value               0                       # Request fanout histogram
system.membus.snoop_fanout::total             5300944                       # Request fanout histogram
system.membus.power_state.pwrStateResidencyTicks::UNDEFINED 709309454000                       # Cumulative time (in ticks) in various power states
system.membus.reqLayer0.occupancy         31637889000                       # Layer occupancy (ticks)
system.membus.reqLayer0.utilization               4.5                       # Layer utilization (%)
system.membus.respLayer1.occupancy        27891021500                       # Layer occupancy (ticks)
system.membus.respLayer1.utilization              3.9                       # Layer utilization (%)
system.tol2bus.trans_dist::ReadResp               976                       # Transaction distribution
system.tol2bus.trans_dist::WritebackDirty     10566374                       # Transaction distribution
system.tol2bus.trans_dist::WritebackClean          317                       # Transaction distribution
system.tol2bus.trans_dist::CleanEvict            1190                       # Transaction distribution
system.tol2bus.trans_dist::ReadExReq          5300048                       # Transaction distribution
system.tol2bus.trans_dist::ReadExResp         5300048                       # Transaction distribution
system.tol2bus.trans_dist::ReadCleanReq           754                       # Transaction distribution
system.tol2bus.trans_dist::ReadSharedReq          222                       # Transaction distribution
system.tol2bus.pkt_count_system.cpu.icache.mem_side_port::system.l2.cpu_side_port         1825                       # Packet count per connected requestor and responder (bytes)
system.tol2bus.pkt_count_system.cpu.dcache.mem_side_port::system.l2.cpu_side_port     15899786                       # Packet count per connected requestor and responder (bytes)
system.tol2bus.pkt_count::total              15901611                       # Packet count per connected requestor and responder (bytes)
system.tol2bus.pkt_size_system.cpu.icache.mem_side_port::system.l2.cpu_side_port        68544                       # Cumulative packet size per connected requestor and responder (bytes)
system.tol2bus.pkt_size_system.cpu.dcache.mem_side_port::system.l2.cpu_side_port    678357888                       # Cumulative packet size per connected requestor and responder (bytes)
system.tol2bus.pkt_size::total              678426432                       # Cumulative packet size per connected requestor and responder (bytes)
system.tol2bus.snoops                         5268318                       # Total snoops (count)
system.tol2bus.snoopTraffic                 337107328                       # Total snoop traffic (bytes)
system.tol2bus.snoop_fanout::samples         10569342                       # Request fanout histogram
system.tol2bus.snoop_fanout::mean            0.000058                       # Request fanout histogram
system.tol2bus.snoop_fanout::stdev           0.007591                       # Request fanout histogram
system.tol2bus.snoop_fanout::underflows             0      0.00%      0.00% # Request fanout histogram
system.tol2bus.snoop_fanout::0               10568733     99.99%     99.99% # Request fanout histogram
system.tol2bus.snoop_fanout::1                    609      0.01%    100.00% # Request fanout histogram
system.tol2bus.snoop_fanout::2                      0      0.00%    100.00% # Request fanout histogram
system.tol2bus.snoop_fanout::overflows              0      0.00%    100.00% # Request fanout histogram
system.tol2bus.snoop_fanout::min_value              0                       # Request fanout histogram
system.tol2bus.snoop_fanout::max_value              1                       # Request fanout histogram
system.tol2bus.snoop_fanout::total           10569342                       # Request fanout histogram
system.tol2bus.power_state.pwrStateResidencyTicks::UNDEFINED 709309454000                       # Cumulative time (in ticks) in various power states
system.tol2bus.reqLayer0.occupancy        21199365000                       # Layer occupancy (ticks)
system.tol2bus.reqLayer0.utilization              3.0                       # Layer utilization (%)
system.tol2bus.respLayer0.occupancy           2262000                       # Layer occupancy (ticks)
system.tol2bus.respLayer0.utilization             0.0                       # Layer utilization (%)
system.tol2bus.respLayer1.occupancy       15900811998                       # Layer occupancy (ticks)
system.tol2bus.respLayer1.utilization             2.2                       # Layer utilization (%)
system.voltage_domain.voltage                       1                       # Voltage in Volts

---------- End Simulation Statistics   ----------
