
---------- Begin Simulation Statistics ----------
final_tick                                59944277000                       # Number of ticks from beginning of simulation (restored from checkpoints and never reset)
host_inst_rate                                 104967                       # Simulator instruction rate (inst/s)
host_mem_usage                                 668644                       # Number of bytes of host memory used
host_op_rate                                   114513                       # Simulator op (including micro ops) rate (op/s)
host_seconds                                   952.68                       # Real time elapsed on the host
host_tick_rate                               62921698                       # Simulator tick rate (ticks/s)
sim_freq                                 1000000000000                       # Frequency of simulated ticks
sim_insts                                   100000001                       # Number of instructions simulated
sim_ops                                     109093866                       # Number of ops (including micro ops) simulated
sim_seconds                                  0.059944                       # Number of seconds simulated
sim_ticks                                 59944277000                       # Number of ticks simulated
system.cpu.committedInsts                   100000001                       # Number of instructions committed
system.cpu.committedOps                     109093866                       # Number of ops (including micro ops) committed
system.cpu.cpi                               1.198886                       # CPI: cycles per instruction
system.cpu.discardedOps                       1407708                       # Number of ops (including micro ops) which were discarded before commit
system.cpu.idleCycles                         4421657                       # Total number of cycles that the object has spent stopped
system.cpu.ipc                               0.834108                       # IPC: instructions per cycle
system.cpu.numCycles                        119888554                       # number of cpu cycles simulated
system.cpu.numFetchSuspends                         0                       # Number of times Execute suspended instruction fetching
system.cpu.numWorkItemsCompleted                    0                       # number of work items this cpu completed
system.cpu.numWorkItemsStarted                      0                       # number of work items this cpu started
system.cpu.op_class_0::No_OpClass                   0      0.00%      0.00% # Class of committed instruction
system.cpu.op_class_0::IntAlu                71946983     65.95%     65.95% # Class of committed instruction
system.cpu.op_class_0::IntMult                 575325      0.53%     66.48% # Class of committed instruction
system.cpu.op_class_0::IntDiv                       5      0.00%     66.48% # Class of committed instruction
system.cpu.op_class_0::FloatAdd                     0      0.00%     66.48% # Class of committed instruction
system.cpu.op_class_0::FloatCmp                     0      0.00%     66.48% # Class of committed instruction
system.cpu.op_class_0::FloatCvt                     0      0.00%     66.48% # Class of committed instruction
system.cpu.op_class_0::FloatMult                    0      0.00%     66.48% # Class of committed instruction
system.cpu.op_class_0::FloatMultAcc                 0      0.00%     66.48% # Class of committed instruction
system.cpu.op_class_0::FloatDiv                     0      0.00%     66.48% # Class of committed instruction
system.cpu.op_class_0::FloatMisc                    0      0.00%     66.48% # Class of committed instruction
system.cpu.op_class_0::FloatSqrt                    0      0.00%     66.48% # Class of committed instruction
system.cpu.op_class_0::SimdAdd                      0      0.00%     66.48% # Class of committed instruction
system.cpu.op_class_0::SimdAddAcc                   0      0.00%     66.48% # Class of committed instruction
system.cpu.op_class_0::SimdAlu                      0      0.00%     66.48% # Class of committed instruction
system.cpu.op_class_0::SimdCmp                      0      0.00%     66.48% # Class of committed instruction
system.cpu.op_class_0::SimdCvt                      0      0.00%     66.48% # Class of committed instruction
system.cpu.op_class_0::SimdMisc                     0      0.00%     66.48% # Class of committed instruction
system.cpu.op_class_0::SimdMult                     0      0.00%     66.48% # Class of committed instruction
system.cpu.op_class_0::SimdMultAcc                  0      0.00%     66.48% # Class of committed instruction
system.cpu.op_class_0::SimdShift                    0      0.00%     66.48% # Class of committed instruction
system.cpu.op_class_0::SimdShiftAcc                 0      0.00%     66.48% # Class of committed instruction
system.cpu.op_class_0::SimdDiv                      0      0.00%     66.48% # Class of committed instruction
system.cpu.op_class_0::SimdSqrt                     0      0.00%     66.48% # Class of committed instruction
system.cpu.op_class_0::SimdFloatAdd                 0      0.00%     66.48% # Class of committed instruction
system.cpu.op_class_0::SimdFloatAlu                 0      0.00%     66.48% # Class of committed instruction
system.cpu.op_class_0::SimdFloatCmp                 0      0.00%     66.48% # Class of committed instruction
system.cpu.op_class_0::SimdFloatCvt                 0      0.00%     66.48% # Class of committed instruction
system.cpu.op_class_0::SimdFloatDiv                 0      0.00%     66.48% # Class of committed instruction
system.cpu.op_class_0::SimdFloatMisc                0      0.00%     66.48% # Class of committed instruction
system.cpu.op_class_0::SimdFloatMult                0      0.00%     66.48% # Class of committed instruction
system.cpu.op_class_0::SimdFloatMultAcc             0      0.00%     66.48% # Class of committed instruction
system.cpu.op_class_0::SimdFloatSqrt                0      0.00%     66.48% # Class of committed instruction
system.cpu.op_class_0::SimdReduceAdd                0      0.00%     66.48% # Class of committed instruction
system.cpu.op_class_0::SimdReduceAlu                0      0.00%     66.48% # Class of committed instruction
system.cpu.op_class_0::SimdReduceCmp                0      0.00%     66.48% # Class of committed instruction
system.cpu.op_class_0::SimdFloatReduceAdd            0      0.00%     66.48% # Class of committed instruction
system.cpu.op_class_0::SimdFloatReduceCmp            0      0.00%     66.48% # Class of committed instruction
system.cpu.op_class_0::SimdAes                      0      0.00%     66.48% # Class of committed instruction
system.cpu.op_class_0::SimdAesMix                   0      0.00%     66.48% # Class of committed instruction
system.cpu.op_class_0::SimdSha1Hash                 0      0.00%     66.48% # Class of committed instruction
system.cpu.op_class_0::SimdSha1Hash2                0      0.00%     66.48% # Class of committed instruction
system.cpu.op_class_0::SimdSha256Hash               0      0.00%     66.48% # Class of committed instruction
system.cpu.op_class_0::SimdSha256Hash2              0      0.00%     66.48% # Class of committed instruction
system.cpu.op_class_0::SimdShaSigma2                0      0.00%     66.48% # Class of committed instruction
system.cpu.op_class_0::SimdShaSigma3                0      0.00%     66.48% # Class of committed instruction
system.cpu.op_class_0::SimdPredAlu                  0      0.00%     66.48% # Class of committed instruction
system.cpu.op_class_0::MemRead               21228313     19.46%     85.94% # Class of committed instruction
system.cpu.op_class_0::MemWrite              15343240     14.06%    100.00% # Class of committed instruction
system.cpu.op_class_0::FloatMemRead                 0      0.00%    100.00% # Class of committed instruction
system.cpu.op_class_0::FloatMemWrite                0      0.00%    100.00% # Class of committed instruction
system.cpu.op_class_0::IprAccess                    0      0.00%    100.00% # Class of committed instruction
system.cpu.op_class_0::InstPrefetch                 0      0.00%    100.00% # Class of committed instruction
system.cpu.op_class_0::total                109093866                       # Class of committed instruction
system.cpu.tickCycles                       115466897                       # Number of cycles that the object actually ticked
system.cpu.workload.numSyscalls                    87                       # Number of system calls
system.membus.snoop_filter.hit_multi_requests            0                       # Number of requests hitting in the snoop filter with multiple (>1) holders of the requested data.
system.membus.snoop_filter.hit_multi_snoops            0                       # Number of snoops hitting in the snoop filter with multiple (>1) holders of the requested data.
system.membus.snoop_filter.hit_single_requests         6910                       # Number of requests hitting in the snoop filter with a single holder of the requested data.
system.membus.snoop_filter.hit_single_snoops            0                       # Number of snoops hitting in the snoop filter with a single holder of the requested data.
system.membus.snoop_filter.tot_requests         47201                       # Total number of requests made to the snoop filter.
system.membus.snoop_filter.tot_snoops               0                       # Total number of snoops made to the snoop filter.
system.tol2bus.snoop_filter.hit_multi_requests           20                       # Number of requests hitting in the snoop filter with multiple (>1) holders of the requested data.
system.tol2bus.snoop_filter.hit_multi_snoops            3                       # Number of snoops hitting in the snoop filter with multiple (>1) holders of the requested data.
system.tol2bus.snoop_filter.hit_single_requests        54029                       # Number of requests hitting in the snoop filter with a single holder of the requested data.
system.tol2bus.snoop_filter.hit_single_snoops          616                       # Number of snoops hitting in the snoop filter with a single holder of the requested data.
system.tol2bus.snoop_filter.tot_requests       109687                       # Total number of requests made to the snoop filter.
system.tol2bus.snoop_filter.tot_snoops            619                       # Total number of snoops made to the snoop filter.
system.clk_domain.clock                          1000                       # Clock period in ticks
system.cpu.branchPred.lookups                21093105                       # Number of BP lookups
system.cpu.branchPred.condPredicted          16849744                       # Number of conditional branches predicted
system.cpu.branchPred.condIncorrect            457738                       # Number of conditional branches incorrect
system.cpu.branchPred.BTBLookups              8377361                       # Number of BTB lookups
system.cpu.branchPred.BTBHits                 7981525                       # Number of BTB hits
system.cpu.branchPred.BTBHitPct             95.274932                       # BTB Hit Percentage
system.cpu.branchPred.RASUsed                 1237394                       # Number of times the RAS was used to get a target.
system.cpu.branchPred.RASIncorrect                472                       # Number of incorrect RAS predictions.
system.cpu.branchPred.indirectLookups          349467                       # Number of indirect predictor lookups.
system.cpu.branchPred.indirectHits             304164                       # Number of indirect target hits.
system.cpu.branchPred.indirectMisses            45303                       # Number of indirect misses.
system.cpu.branchPred.indirectMispredicted         1198                       # Number of mispredicted indirect branches.
system.cpu.dcache.demand_hits::.cpu.data     35493654                       # number of demand (read+write) hits
system.cpu.dcache.demand_hits::total         35493654                       # number of demand (read+write) hits
system.cpu.dcache.overall_hits::.cpu.data     35564408                       # number of overall hits
system.cpu.dcache.overall_hits::total        35564408                       # number of overall hits
system.cpu.dcache.demand_misses::.cpu.data        71595                       # number of demand (read+write) misses
system.cpu.dcache.demand_misses::total          71595                       # number of demand (read+write) misses
system.cpu.dcache.overall_misses::.cpu.data        71617                       # number of overall misses
system.cpu.dcache.overall_misses::total         71617                       # number of overall misses
system.cpu.dcache.demand_miss_latency::.cpu.data   4387875500                       # number of demand (read+write) miss cycles
system.cpu.dcache.demand_miss_latency::total   4387875500                       # number of demand (read+write) miss cycles
system.cpu.dcache.overall_miss_latency::.cpu.data   4387875500                       # number of overall miss cycles
system.cpu.dcache.overall_miss_latency::total   4387875500                       # number of overall miss cycles
system.cpu.dcache.demand_accesses::.cpu.data     35565249                       # number of demand (read+write) accesses
system.cpu.dcache.demand_accesses::total     35565249                       # number of demand (read+write) accesses
system.cpu.dcache.overall_accesses::.cpu.data     35636025                       # number of overall (read+write) accesses
system.cpu.dcache.overall_accesses::total     35636025                       # number of overall (read+write) accesses
system.cpu.dcache.demand_miss_rate::.cpu.data     0.002013                       # miss rate for demand accesses
system.cpu.dcache.demand_miss_rate::total     0.002013                       # miss rate for demand accesses
system.cpu.dcache.overall_miss_rate::.cpu.data     0.002010                       # miss rate for overall accesses
system.cpu.dcache.overall_miss_rate::total     0.002010                       # miss rate for overall accesses
system.cpu.dcache.demand_avg_miss_latency::.cpu.data 61287.457225                       # average overall miss latency
system.cpu.dcache.demand_avg_miss_latency::total 61287.457225                       # average overall miss latency
system.cpu.dcache.overall_avg_miss_latency::.cpu.data 61268.630353                       # average overall miss latency
system.cpu.dcache.overall_avg_miss_latency::total 61268.630353                       # average overall miss latency
system.cpu.dcache.blocked_cycles::no_mshrs            0                       # number of cycles access was blocked
system.cpu.dcache.blocked_cycles::no_targets            0                       # number of cycles access was blocked
system.cpu.dcache.blocked::no_mshrs                 0                       # number of cycles access was blocked
system.cpu.dcache.blocked::no_targets               0                       # number of cycles access was blocked
system.cpu.dcache.avg_blocked_cycles::no_mshrs          nan                       # average number of cycles each access was blocked
system.cpu.dcache.avg_blocked_cycles::no_targets          nan                       # average number of cycles each access was blocked
system.cpu.dcache.writebacks::.writebacks        50509                       # number of writebacks
system.cpu.dcache.writebacks::total             50509                       # number of writebacks
system.cpu.dcache.demand_mshr_hits::.cpu.data        16564                       # number of demand (read+write) MSHR hits
system.cpu.dcache.demand_mshr_hits::total        16564                       # number of demand (read+write) MSHR hits
system.cpu.dcache.overall_mshr_hits::.cpu.data        16564                       # number of overall MSHR hits
system.cpu.dcache.overall_mshr_hits::total        16564                       # number of overall MSHR hits
system.cpu.dcache.demand_mshr_misses::.cpu.data        55031                       # number of demand (read+write) MSHR misses
system.cpu.dcache.demand_mshr_misses::total        55031                       # number of demand (read+write) MSHR misses
system.cpu.dcache.overall_mshr_misses::.cpu.data        55048                       # number of overall MSHR misses
system.cpu.dcache.overall_mshr_misses::total        55048                       # number of overall MSHR misses
system.cpu.dcache.demand_mshr_miss_latency::.cpu.data   3327953000                       # number of demand (read+write) MSHR miss cycles
system.cpu.dcache.demand_mshr_miss_latency::total   3327953000                       # number of demand (read+write) MSHR miss cycles
system.cpu.dcache.overall_mshr_miss_latency::.cpu.data   3329207000                       # number of overall MSHR miss cycles
system.cpu.dcache.overall_mshr_miss_latency::total   3329207000                       # number of overall MSHR miss cycles
system.cpu.dcache.demand_mshr_miss_rate::.cpu.data     0.001547                       # mshr miss rate for demand accesses
system.cpu.dcache.demand_mshr_miss_rate::total     0.001547                       # mshr miss rate for demand accesses
system.cpu.dcache.overall_mshr_miss_rate::.cpu.data     0.001545                       # mshr miss rate for overall accesses
system.cpu.dcache.overall_mshr_miss_rate::total     0.001545                       # mshr miss rate for overall accesses
system.cpu.dcache.demand_avg_mshr_miss_latency::.cpu.data 60474.150933                       # average overall mshr miss latency
system.cpu.dcache.demand_avg_mshr_miss_latency::total 60474.150933                       # average overall mshr miss latency
system.cpu.dcache.overall_avg_mshr_miss_latency::.cpu.data 60478.255341                       # average overall mshr miss latency
system.cpu.dcache.overall_avg_mshr_miss_latency::total 60478.255341                       # average overall mshr miss latency
system.cpu.dcache.replacements                  54026                       # number of replacements
system.cpu.dcache.ReadReq_hits::.cpu.data     21070489                       # number of ReadReq hits
system.cpu.dcache.ReadReq_hits::total        21070489                       # number of ReadReq hits
system.cpu.dcache.ReadReq_misses::.cpu.data        15881                       # number of ReadReq misses
system.cpu.dcache.ReadReq_misses::total         15881                       # number of ReadReq misses
system.cpu.dcache.ReadReq_miss_latency::.cpu.data    252961500                       # number of ReadReq miss cycles
system.cpu.dcache.ReadReq_miss_latency::total    252961500                       # number of ReadReq miss cycles
system.cpu.dcache.ReadReq_accesses::.cpu.data     21086370                       # number of ReadReq accesses(hits+misses)
system.cpu.dcache.ReadReq_accesses::total     21086370                       # number of ReadReq accesses(hits+misses)
system.cpu.dcache.ReadReq_miss_rate::.cpu.data     0.000753                       # miss rate for ReadReq accesses
system.cpu.dcache.ReadReq_miss_rate::total     0.000753                       # miss rate for ReadReq accesses
system.cpu.dcache.ReadReq_avg_miss_latency::.cpu.data 15928.562433                       # average ReadReq miss latency
system.cpu.dcache.ReadReq_avg_miss_latency::total 15928.562433                       # average ReadReq miss latency
system.cpu.dcache.ReadReq_mshr_hits::.cpu.data           11                       # number of ReadReq MSHR hits
system.cpu.dcache.ReadReq_mshr_hits::total           11                       # number of ReadReq MSHR hits
system.cpu.dcache.ReadReq_mshr_misses::.cpu.data        15870                       # number of ReadReq MSHR misses
system.cpu.dcache.ReadReq_mshr_misses::total        15870                       # number of ReadReq MSHR misses
system.cpu.dcache.ReadReq_mshr_miss_latency::.cpu.data    236174000                       # number of ReadReq MSHR miss cycles
system.cpu.dcache.ReadReq_mshr_miss_latency::total    236174000                       # number of ReadReq MSHR miss cycles
system.cpu.dcache.ReadReq_mshr_miss_rate::.cpu.data     0.000753                       # mshr miss rate for ReadReq accesses
system.cpu.dcache.ReadReq_mshr_miss_rate::total     0.000753                       # mshr miss rate for ReadReq accesses
system.cpu.dcache.ReadReq_avg_mshr_miss_latency::.cpu.data 14881.789540                       # average ReadReq mshr miss latency
system.cpu.dcache.ReadReq_avg_mshr_miss_latency::total 14881.789540                       # average ReadReq mshr miss latency
system.cpu.dcache.WriteReq_hits::.cpu.data     14423165                       # number of WriteReq hits
system.cpu.dcache.WriteReq_hits::total       14423165                       # number of WriteReq hits
system.cpu.dcache.WriteReq_misses::.cpu.data        55714                       # number of WriteReq misses
system.cpu.dcache.WriteReq_misses::total        55714                       # number of WriteReq misses
system.cpu.dcache.WriteReq_miss_latency::.cpu.data   4134914000                       # number of WriteReq miss cycles
system.cpu.dcache.WriteReq_miss_latency::total   4134914000                       # number of WriteReq miss cycles
system.cpu.dcache.WriteReq_accesses::.cpu.data     14478879                       # number of WriteReq accesses(hits+misses)
system.cpu.dcache.WriteReq_accesses::total     14478879                       # number of WriteReq accesses(hits+misses)
system.cpu.dcache.WriteReq_miss_rate::.cpu.data     0.003848                       # miss rate for WriteReq accesses
system.cpu.dcache.WriteReq_miss_rate::total     0.003848                       # miss rate for WriteReq accesses
system.cpu.dcache.WriteReq_avg_miss_latency::.cpu.data 74216.785727                       # average WriteReq miss latency
system.cpu.dcache.WriteReq_avg_miss_latency::total 74216.785727                       # average WriteReq miss latency
system.cpu.dcache.WriteReq_mshr_hits::.cpu.data        16553                       # number of WriteReq MSHR hits
system.cpu.dcache.WriteReq_mshr_hits::total        16553                       # number of WriteReq MSHR hits
system.cpu.dcache.WriteReq_mshr_misses::.cpu.data        39161                       # number of WriteReq MSHR misses
system.cpu.dcache.WriteReq_mshr_misses::total        39161                       # number of WriteReq MSHR misses
system.cpu.dcache.WriteReq_mshr_miss_latency::.cpu.data   3091779000                       # number of WriteReq MSHR miss cycles
system.cpu.dcache.WriteReq_mshr_miss_latency::total   3091779000                       # number of WriteReq MSHR miss cycles
system.cpu.dcache.WriteReq_mshr_miss_rate::.cpu.data     0.002705                       # mshr miss rate for WriteReq accesses
system.cpu.dcache.WriteReq_mshr_miss_rate::total     0.002705                       # mshr miss rate for WriteReq accesses
system.cpu.dcache.WriteReq_avg_mshr_miss_latency::.cpu.data 78950.460918                       # average WriteReq mshr miss latency
system.cpu.dcache.WriteReq_avg_mshr_miss_latency::total 78950.460918                       # average WriteReq mshr miss latency
system.cpu.dcache.SoftPFReq_hits::.cpu.data        70754                       # number of SoftPFReq hits
system.cpu.dcache.SoftPFReq_hits::total         70754                       # number of SoftPFReq hits
system.cpu.dcache.SoftPFReq_misses::.cpu.data           22                       # number of SoftPFReq misses
system.cpu.dcache.SoftPFReq_misses::total           22                       # number of SoftPFReq misses
system.cpu.dcache.SoftPFReq_accesses::.cpu.data        70776                       # number of SoftPFReq accesses(hits+misses)
system.cpu.dcache.SoftPFReq_accesses::total        70776                       # number of SoftPFReq accesses(hits+misses)
system.cpu.dcache.SoftPFReq_miss_rate::.cpu.data     0.000311                       # miss rate for SoftPFReq accesses
system.cpu.dcache.SoftPFReq_miss_rate::total     0.000311                       # miss rate for SoftPFReq accesses
system.cpu.dcache.SoftPFReq_mshr_misses::.cpu.data           17                       # number of SoftPFReq MSHR misses
system.cpu.dcache.SoftPFReq_mshr_misses::total           17                       # number of SoftPFReq MSHR misses
system.cpu.dcache.SoftPFReq_mshr_miss_latency::.cpu.data      1254000                       # number of SoftPFReq MSHR miss cycles
system.cpu.dcache.SoftPFReq_mshr_miss_latency::total      1254000                       # number of SoftPFReq MSHR miss cycles
system.cpu.dcache.SoftPFReq_mshr_miss_rate::.cpu.data     0.000240                       # mshr miss rate for SoftPFReq accesses
system.cpu.dcache.SoftPFReq_mshr_miss_rate::total     0.000240                       # mshr miss rate for SoftPFReq accesses
system.cpu.dcache.SoftPFReq_avg_mshr_miss_latency::.cpu.data 73764.705882                       # average SoftPFReq mshr miss latency
system.cpu.dcache.SoftPFReq_avg_mshr_miss_latency::total 73764.705882                       # average SoftPFReq mshr miss latency
system.cpu.dcache.LoadLockedReq_hits::.cpu.data        90276                       # number of LoadLockedReq hits
system.cpu.dcache.LoadLockedReq_hits::total        90276                       # number of LoadLockedReq hits
system.cpu.dcache.LoadLockedReq_misses::.cpu.data            2                       # number of LoadLockedReq misses
system.cpu.dcache.LoadLockedReq_misses::total            2                       # number of LoadLockedReq misses
system.cpu.dcache.LoadLockedReq_miss_latency::.cpu.data       172000                       # number of LoadLockedReq miss cycles
system.cpu.dcache.LoadLockedReq_miss_latency::total       172000                       # number of LoadLockedReq miss cycles
system.cpu.dcache.LoadLockedReq_accesses::.cpu.data        90278                       # number of LoadLockedReq accesses(hits+misses)
system.cpu.dcache.LoadLockedReq_accesses::total        90278                       # number of LoadLockedReq accesses(hits+misses)
system.cpu.dcache.LoadLockedReq_miss_rate::.cpu.data     0.000022                       # miss rate for LoadLockedReq accesses
system.cpu.dcache.LoadLockedReq_miss_rate::total     0.000022                       # miss rate for LoadLockedReq accesses
system.cpu.dcache.LoadLockedReq_avg_miss_latency::.cpu.data        86000                       # average LoadLockedReq miss latency
system.cpu.dcache.LoadLockedReq_avg_miss_latency::total        86000                       # average LoadLockedReq miss latency
system.cpu.dcache.LoadLockedReq_mshr_misses::.cpu.data            2                       # number of LoadLockedReq MSHR misses
system.cpu.dcache.LoadLockedReq_mshr_misses::total            2                       # number of LoadLockedReq MSHR misses
system.cpu.dcache.LoadLockedReq_mshr_miss_latency::.cpu.data       170000                       # number of LoadLockedReq MSHR miss cycles
system.cpu.dcache.LoadLockedReq_mshr_miss_latency::total       170000                       # number of LoadLockedReq MSHR miss cycles
system.cpu.dcache.LoadLockedReq_mshr_miss_rate::.cpu.data     0.000022                       # mshr miss rate for LoadLockedReq accesses
system.cpu.dcache.LoadLockedReq_mshr_miss_rate::total     0.000022                       # mshr miss rate for LoadLockedReq accesses
system.cpu.dcache.LoadLockedReq_avg_mshr_miss_latency::.cpu.data        85000                       # average LoadLockedReq mshr miss latency
system.cpu.dcache.LoadLockedReq_avg_mshr_miss_latency::total        85000                       # average LoadLockedReq mshr miss latency
system.cpu.dcache.StoreCondReq_hits::.cpu.data        90278                       # number of StoreCondReq hits
system.cpu.dcache.StoreCondReq_hits::total        90278                       # number of StoreCondReq hits
system.cpu.dcache.StoreCondReq_accesses::.cpu.data        90278                       # number of StoreCondReq accesses(hits+misses)
system.cpu.dcache.StoreCondReq_accesses::total        90278                       # number of StoreCondReq accesses(hits+misses)
system.cpu.dcache.power_state.pwrStateResidencyTicks::UNDEFINED  59944277000                       # Cumulative time (in ticks) in various power states
system.cpu.dcache.tags.tagsinuse          1020.429303                       # Cycle average of tags in use
system.cpu.dcache.tags.total_refs            35800012                       # Total number of references to valid blocks.
system.cpu.dcache.tags.sampled_refs             55050                       # Sample count of references to valid blocks.
system.cpu.dcache.tags.avg_refs            650.318111                       # Average number of references to valid blocks.
system.cpu.dcache.tags.warmup_cycle            176500                       # Cycle when the warmup percentage was hit.
system.cpu.dcache.tags.occ_blocks::.cpu.data  1020.429303                       # Average occupied blocks per requestor
system.cpu.dcache.tags.occ_percent::.cpu.data     0.996513                       # Average percentage of cache occupancy
system.cpu.dcache.tags.occ_percent::total     0.996513                       # Average percentage of cache occupancy
system.cpu.dcache.tags.occ_task_id_blocks::1024         1024                       # Occupied blocks per task id
system.cpu.dcache.tags.age_task_id_blocks_1024::0            8                       # Occupied blocks per task id
system.cpu.dcache.tags.age_task_id_blocks_1024::1           63                       # Occupied blocks per task id
system.cpu.dcache.tags.age_task_id_blocks_1024::2          542                       # Occupied blocks per task id
system.cpu.dcache.tags.age_task_id_blocks_1024::3          374                       # Occupied blocks per task id
system.cpu.dcache.tags.age_task_id_blocks_1024::4           37                       # Occupied blocks per task id
system.cpu.dcache.tags.occ_task_id_percent::1024            1                       # Percentage of cache occupancy per task id
system.cpu.dcache.tags.tag_accesses          71688212                       # Number of tag accesses
system.cpu.dcache.tags.data_accesses         71688212                       # Number of data accesses
system.cpu.dcache.tags.power_state.pwrStateResidencyTicks::UNDEFINED  59944277000                       # Cumulative time (in ticks) in various power states
system.cpu.dtb.instHits                             0                       # ITB inst hits
system.cpu.dtb.instMisses                           0                       # ITB inst misses
system.cpu.dtb.readHits                             0                       # DTB read hits
system.cpu.dtb.readMisses                           0                       # DTB read misses
system.cpu.dtb.writeHits                            0                       # DTB write hits
system.cpu.dtb.writeMisses                          0                       # DTB write misses
system.cpu.dtb.inserts                              0                       # Number of times an entry is inserted into the TLB
system.cpu.dtb.flushTlb                             0                       # Number of times complete TLB was flushed
system.cpu.dtb.flushTlbMva                          0                       # Number of times TLB was flushed by MVA
system.cpu.dtb.flushTlbMvaAsid                      0                       # Number of times TLB was flushed by MVA & ASID
system.cpu.dtb.flushTlbAsid                         0                       # Number of times TLB was flushed by ASID
system.cpu.dtb.flushedEntries                       0                       # Number of entries that have been flushed from TLB
system.cpu.dtb.alignFaults                          0                       # Number of TLB faults due to alignment restrictions
system.cpu.dtb.prefetchFaults                       0                       # Number of TLB faults due to prefetch
system.cpu.dtb.domainFaults                         0                       # Number of TLB faults due to domain restrictions
system.cpu.dtb.permsFaults                          0                       # Number of TLB faults due to permissions restrictions
system.cpu.dtb.readAccesses                         0                       # DTB read accesses
system.cpu.dtb.writeAccesses                        0                       # DTB write accesses
system.cpu.dtb.instAccesses                         0                       # ITB inst accesses
system.cpu.dtb.hits                                 0                       # Total TLB (inst and data) hits
system.cpu.dtb.misses                               0                       # Total TLB (inst and data) misses
system.cpu.dtb.accesses                             0                       # Total TLB (inst and data) accesses
system.cpu.dtb.stage2_mmu.stage2_tlb.instHits            0                       # ITB inst hits
system.cpu.dtb.stage2_mmu.stage2_tlb.instMisses            0                       # ITB inst misses
system.cpu.dtb.stage2_mmu.stage2_tlb.readHits            0                       # DTB read hits
system.cpu.dtb.stage2_mmu.stage2_tlb.readMisses            0                       # DTB read misses
system.cpu.dtb.stage2_mmu.stage2_tlb.writeHits            0                       # DTB write hits
system.cpu.dtb.stage2_mmu.stage2_tlb.writeMisses            0                       # DTB write misses
system.cpu.dtb.stage2_mmu.stage2_tlb.inserts            0                       # Number of times an entry is inserted into the TLB
system.cpu.dtb.stage2_mmu.stage2_tlb.flushTlb            0                       # Number of times complete TLB was flushed
system.cpu.dtb.stage2_mmu.stage2_tlb.flushTlbMva            0                       # Number of times TLB was flushed by MVA
system.cpu.dtb.stage2_mmu.stage2_tlb.flushTlbMvaAsid            0                       # Number of times TLB was flushed by MVA & ASID
system.cpu.dtb.stage2_mmu.stage2_tlb.flushTlbAsid            0                       # Number of times TLB was flushed by ASID
system.cpu.dtb.stage2_mmu.stage2_tlb.flushedEntries            0                       # Number of entries that have been flushed from TLB
system.cpu.dtb.stage2_mmu.stage2_tlb.alignFaults            0                       # Number of TLB faults due to alignment restrictions
system.cpu.dtb.stage2_mmu.stage2_tlb.prefetchFaults            0                       # Number of TLB faults due to prefetch
system.cpu.dtb.stage2_mmu.stage2_tlb.domainFaults            0                       # Number of TLB faults due to domain restrictions
system.cpu.dtb.stage2_mmu.stage2_tlb.permsFaults            0                       # Number of TLB faults due to permissions restrictions
system.cpu.dtb.stage2_mmu.stage2_tlb.readAccesses            0                       # DTB read accesses
system.cpu.dtb.stage2_mmu.stage2_tlb.writeAccesses            0                       # DTB write accesses
system.cpu.dtb.stage2_mmu.stage2_tlb.instAccesses            0                       # ITB inst accesses
system.cpu.dtb.stage2_mmu.stage2_tlb.hits            0                       # Total TLB (inst and data) hits
system.cpu.dtb.stage2_mmu.stage2_tlb.misses            0                       # Total TLB (inst and data) misses
system.cpu.dtb.stage2_mmu.stage2_tlb.accesses            0                       # Total TLB (inst and data) accesses
system.cpu.dtb.stage2_mmu.stage2_tlb.walker.walks            0                       # Table walker walks requested
system.cpu.dtb.stage2_mmu.stage2_tlb.walker.requestOrigin_Requested::Data            0                       # Table walker requests started/completed, data/inst
system.cpu.dtb.stage2_mmu.stage2_tlb.walker.requestOrigin_Requested::Inst            0                       # Table walker requests started/completed, data/inst
system.cpu.dtb.stage2_mmu.stage2_tlb.walker.requestOrigin_Requested::total            0                       # Table walker requests started/completed, data/inst
system.cpu.dtb.stage2_mmu.stage2_tlb.walker.requestOrigin_Completed::Data            0                       # Table walker requests started/completed, data/inst
system.cpu.dtb.stage2_mmu.stage2_tlb.walker.requestOrigin_Completed::Inst            0                       # Table walker requests started/completed, data/inst
system.cpu.dtb.stage2_mmu.stage2_tlb.walker.requestOrigin_Completed::total            0                       # Table walker requests started/completed, data/inst
system.cpu.dtb.stage2_mmu.stage2_tlb.walker.requestOrigin::total            0                       # Table walker requests started/completed, data/inst
system.cpu.dtb.stage2_mmu.stage2_tlb.walker.power_state.pwrStateResidencyTicks::UNDEFINED  59944277000                       # Cumulative time (in ticks) in various power states
system.cpu.dtb.walker.walks                         0                       # Table walker walks requested
system.cpu.dtb.walker.requestOrigin_Requested::Data            0                       # Table walker requests started/completed, data/inst
system.cpu.dtb.walker.requestOrigin_Requested::Inst            0                       # Table walker requests started/completed, data/inst
system.cpu.dtb.walker.requestOrigin_Requested::total            0                       # Table walker requests started/completed, data/inst
system.cpu.dtb.walker.requestOrigin_Completed::Data            0                       # Table walker requests started/completed, data/inst
system.cpu.dtb.walker.requestOrigin_Completed::Inst            0                       # Table walker requests started/completed, data/inst
system.cpu.dtb.walker.requestOrigin_Completed::total            0                       # Table walker requests started/completed, data/inst
system.cpu.dtb.walker.requestOrigin::total            0                       # Table walker requests started/completed, data/inst
system.cpu.dtb.walker.power_state.pwrStateResidencyTicks::UNDEFINED  59944277000                       # Cumulative time (in ticks) in various power states
system.cpu.fetch2.intInstructions            54872365                       # Number of integer instructions successfully decoded
system.cpu.fetch2.fpInstructions                    0                       # Number of floating point instructions successfully decoded
system.cpu.fetch2.vecInstructions                   0                       # Number of SIMD instructions successfully decoded
system.cpu.fetch2.loadInstructions           19111953                       # Number of memory load instructions successfully decoded
system.cpu.fetch2.storeInstructions          11518496                       # Number of memory store instructions successfully decoded
system.cpu.fetch2.amoInstructions                   0                       # Number of memory atomic instructions successfully decoded
system.cpu.icache.demand_hits::.cpu.inst     30518612                       # number of demand (read+write) hits
system.cpu.icache.demand_hits::total         30518612                       # number of demand (read+write) hits
system.cpu.icache.overall_hits::.cpu.inst     30518612                       # number of overall hits
system.cpu.icache.overall_hits::total        30518612                       # number of overall hits
system.cpu.icache.demand_misses::.cpu.inst          611                       # number of demand (read+write) misses
system.cpu.icache.demand_misses::total            611                       # number of demand (read+write) misses
system.cpu.icache.overall_misses::.cpu.inst          611                       # number of overall misses
system.cpu.icache.overall_misses::total           611                       # number of overall misses
system.cpu.icache.demand_miss_latency::.cpu.inst     47273500                       # number of demand (read+write) miss cycles
system.cpu.icache.demand_miss_latency::total     47273500                       # number of demand (read+write) miss cycles
system.cpu.icache.overall_miss_latency::.cpu.inst     47273500                       # number of overall miss cycles
system.cpu.icache.overall_miss_latency::total     47273500                       # number of overall miss cycles
system.cpu.icache.demand_accesses::.cpu.inst     30519223                       # number of demand (read+write) accesses
system.cpu.icache.demand_accesses::total     30519223                       # number of demand (read+write) accesses
system.cpu.icache.overall_accesses::.cpu.inst     30519223                       # number of overall (read+write) accesses
system.cpu.icache.overall_accesses::total     30519223                       # number of overall (read+write) accesses
system.cpu.icache.demand_miss_rate::.cpu.inst     0.000020                       # miss rate for demand accesses
system.cpu.icache.demand_miss_rate::total     0.000020                       # miss rate for demand accesses
system.cpu.icache.overall_miss_rate::.cpu.inst     0.000020                       # miss rate for overall accesses
system.cpu.icache.overall_miss_rate::total     0.000020                       # miss rate for overall accesses
system.cpu.icache.demand_avg_miss_latency::.cpu.inst 77370.703764                       # average overall miss latency
system.cpu.icache.demand_avg_miss_latency::total 77370.703764                       # average overall miss latency
system.cpu.icache.overall_avg_miss_latency::.cpu.inst 77370.703764                       # average overall miss latency
system.cpu.icache.overall_avg_miss_latency::total 77370.703764                       # average overall miss latency
system.cpu.icache.blocked_cycles::no_mshrs            0                       # number of cycles access was blocked
system.cpu.icache.blocked_cycles::no_targets            0                       # number of cycles access was blocked
system.cpu.icache.blocked::no_mshrs                 0                       # number of cycles access was blocked
system.cpu.icache.blocked::no_targets               0                       # number of cycles access was blocked
system.cpu.icache.avg_blocked_cycles::no_mshrs          nan                       # average number of cycles each access was blocked
system.cpu.icache.avg_blocked_cycles::no_targets          nan                       # average number of cycles each access was blocked
system.cpu.icache.demand_mshr_misses::.cpu.inst          611                       # number of demand (read+write) MSHR misses
system.cpu.icache.demand_mshr_misses::total          611                       # number of demand (read+write) MSHR misses
system.cpu.icache.overall_mshr_misses::.cpu.inst          611                       # number of overall MSHR misses
system.cpu.icache.overall_mshr_misses::total          611                       # number of overall MSHR misses
system.cpu.icache.demand_mshr_miss_latency::.cpu.inst     46662500                       # number of demand (read+write) MSHR miss cycles
system.cpu.icache.demand_mshr_miss_latency::total     46662500                       # number of demand (read+write) MSHR miss cycles
system.cpu.icache.overall_mshr_miss_latency::.cpu.inst     46662500                       # number of overall MSHR miss cycles
system.cpu.icache.overall_mshr_miss_latency::total     46662500                       # number of overall MSHR miss cycles
system.cpu.icache.demand_mshr_miss_rate::.cpu.inst     0.000020                       # mshr miss rate for demand accesses
system.cpu.icache.demand_mshr_miss_rate::total     0.000020                       # mshr miss rate for demand accesses
system.cpu.icache.overall_mshr_miss_rate::.cpu.inst     0.000020                       # mshr miss rate for overall accesses
system.cpu.icache.overall_mshr_miss_rate::total     0.000020                       # mshr miss rate for overall accesses
system.cpu.icache.demand_avg_mshr_miss_latency::.cpu.inst 76370.703764                       # average overall mshr miss latency
system.cpu.icache.demand_avg_mshr_miss_latency::total 76370.703764                       # average overall mshr miss latency
system.cpu.icache.overall_avg_mshr_miss_latency::.cpu.inst 76370.703764                       # average overall mshr miss latency
system.cpu.icache.overall_avg_mshr_miss_latency::total 76370.703764                       # average overall mshr miss latency
system.cpu.icache.replacements                      0                       # number of replacements
system.cpu.icache.ReadReq_hits::.cpu.inst     30518612                       # number of ReadReq hits
system.cpu.icache.ReadReq_hits::total        30518612                       # number of ReadReq hits
system.cpu.icache.ReadReq_misses::.cpu.inst          611                       # number of ReadReq misses
system.cpu.icache.ReadReq_misses::total           611                       # number of ReadReq misses
system.cpu.icache.ReadReq_miss_latency::.cpu.inst     47273500                       # number of ReadReq miss cycles
system.cpu.icache.ReadReq_miss_latency::total     47273500                       # number of ReadReq miss cycles
system.cpu.icache.ReadReq_accesses::.cpu.inst     30519223                       # number of ReadReq accesses(hits+misses)
system.cpu.icache.ReadReq_accesses::total     30519223                       # number of ReadReq accesses(hits+misses)
system.cpu.icache.ReadReq_miss_rate::.cpu.inst     0.000020                       # miss rate for ReadReq accesses
system.cpu.icache.ReadReq_miss_rate::total     0.000020                       # miss rate for ReadReq accesses
system.cpu.icache.ReadReq_avg_miss_latency::.cpu.inst 77370.703764                       # average ReadReq miss latency
system.cpu.icache.ReadReq_avg_miss_latency::total 77370.703764                       # average ReadReq miss latency
system.cpu.icache.ReadReq_mshr_misses::.cpu.inst          611                       # number of ReadReq MSHR misses
system.cpu.icache.ReadReq_mshr_misses::total          611                       # number of ReadReq MSHR misses
system.cpu.icache.ReadReq_mshr_miss_latency::.cpu.inst     46662500                       # number of ReadReq MSHR miss cycles
system.cpu.icache.ReadReq_mshr_miss_latency::total     46662500                       # number of ReadReq MSHR miss cycles
system.cpu.icache.ReadReq_mshr_miss_rate::.cpu.inst     0.000020                       # mshr miss rate for ReadReq accesses
system.cpu.icache.ReadReq_mshr_miss_rate::total     0.000020                       # mshr miss rate for ReadReq accesses
system.cpu.icache.ReadReq_avg_mshr_miss_latency::.cpu.inst 76370.703764                       # average ReadReq mshr miss latency
system.cpu.icache.ReadReq_avg_mshr_miss_latency::total 76370.703764                       # average ReadReq mshr miss latency
system.cpu.icache.power_state.pwrStateResidencyTicks::UNDEFINED  59944277000                       # Cumulative time (in ticks) in various power states
system.cpu.icache.tags.tagsinuse           609.545617                       # Cycle average of tags in use
system.cpu.icache.tags.total_refs            30519223                       # Total number of references to valid blocks.
system.cpu.icache.tags.sampled_refs               611                       # Sample count of references to valid blocks.
system.cpu.icache.tags.avg_refs          49949.628478                       # Average number of references to valid blocks.
system.cpu.icache.tags.warmup_cycle             87500                       # Cycle when the warmup percentage was hit.
system.cpu.icache.tags.occ_blocks::.cpu.inst   609.545617                       # Average occupied blocks per requestor
system.cpu.icache.tags.occ_percent::.cpu.inst     0.297630                       # Average percentage of cache occupancy
system.cpu.icache.tags.occ_percent::total     0.297630                       # Average percentage of cache occupancy
system.cpu.icache.tags.occ_task_id_blocks::1024          611                       # Occupied blocks per task id
system.cpu.icache.tags.age_task_id_blocks_1024::4          611                       # Occupied blocks per task id
system.cpu.icache.tags.occ_task_id_percent::1024     0.298340                       # Percentage of cache occupancy per task id
system.cpu.icache.tags.tag_accesses         244154395                       # Number of tag accesses
system.cpu.icache.tags.data_accesses        244154395                       # Number of data accesses
system.cpu.icache.tags.power_state.pwrStateResidencyTicks::UNDEFINED  59944277000                       # Cumulative time (in ticks) in various power states
system.cpu.itb.instHits                             0                       # ITB inst hits
system.cpu.itb.instMisses                           0                       # ITB inst misses
system.cpu.itb.readHits                             0                       # DTB read hits
system.cpu.itb.readMisses                           0                       # DTB read misses
system.cpu.itb.writeHits                            0                       # DTB write hits
system.cpu.itb.writeMisses                          0                       # DTB write misses
system.cpu.itb.inserts                              0                       # Number of times an entry is inserted into the TLB
system.cpu.itb.flushTlb                             0                       # Number of times complete TLB was flushed
system.cpu.itb.flushTlbMva                          0                       # Number of times TLB was flushed by MVA
system.cpu.itb.flushTlbMvaAsid                      0                       # Number of times TLB was flushed by MVA & ASID
system.cpu.itb.flushTlbAsid                         0                       # Number of times TLB was flushed by ASID
system.cpu.itb.flushedEntries                       0                       # Number of entries that have been flushed from TLB
system.cpu.itb.alignFaults                          0                       # Number of TLB faults due to alignment restrictions
system.cpu.itb.prefetchFaults                       0                       # Number of TLB faults due to prefetch
system.cpu.itb.domainFaults                         0                       # Number of TLB faults due to domain restrictions
system.cpu.itb.permsFaults                          0                       # Number of TLB faults due to permissions restrictions
system.cpu.itb.readAccesses                         0                       # DTB read accesses
system.cpu.itb.writeAccesses                        0                       # DTB write accesses
system.cpu.itb.instAccesses                         0                       # ITB inst accesses
system.cpu.itb.hits                                 0                       # Total TLB (inst and data) hits
system.cpu.itb.misses                               0                       # Total TLB (inst and data) misses
system.cpu.itb.accesses                             0                       # Total TLB (inst and data) accesses
system.cpu.itb.stage2_mmu.stage2_tlb.instHits            0                       # ITB inst hits
system.cpu.itb.stage2_mmu.stage2_tlb.instMisses            0                       # ITB inst misses
system.cpu.itb.stage2_mmu.stage2_tlb.readHits            0                       # DTB read hits
system.cpu.itb.stage2_mmu.stage2_tlb.readMisses            0                       # DTB read misses
system.cpu.itb.stage2_mmu.stage2_tlb.writeHits            0                       # DTB write hits
system.cpu.itb.stage2_mmu.stage2_tlb.writeMisses            0                       # DTB write misses
system.cpu.itb.stage2_mmu.stage2_tlb.inserts            0                       # Number of times an entry is inserted into the TLB
system.cpu.itb.stage2_mmu.stage2_tlb.flushTlb            0                       # Number of times complete TLB was flushed
system.cpu.itb.stage2_mmu.stage2_tlb.flushTlbMva            0                       # Number of times TLB was flushed by MVA
system.cpu.itb.stage2_mmu.stage2_tlb.flushTlbMvaAsid            0                       # Number of times TLB was flushed by MVA & ASID
system.cpu.itb.stage2_mmu.stage2_tlb.flushTlbAsid            0                       # Number of times TLB was flushed by ASID
system.cpu.itb.stage2_mmu.stage2_tlb.flushedEntries            0                       # Number of entries that have been flushed from TLB
system.cpu.itb.stage2_mmu.stage2_tlb.alignFaults            0                       # Number of TLB faults due to alignment restrictions
system.cpu.itb.stage2_mmu.stage2_tlb.prefetchFaults            0                       # Number of TLB faults due to prefetch
system.cpu.itb.stage2_mmu.stage2_tlb.domainFaults            0                       # Number of TLB faults due to domain restrictions
system.cpu.itb.stage2_mmu.stage2_tlb.permsFaults            0                       # Number of TLB faults due to permissions restrictions
system.cpu.itb.stage2_mmu.stage2_tlb.readAccesses            0                       # DTB read accesses
system.cpu.itb.stage2_mmu.stage2_tlb.writeAccesses            0                       # DTB write accesses
system.cpu.itb.stage2_mmu.stage2_tlb.instAccesses            0                       # ITB inst accesses
system.cpu.itb.stage2_mmu.stage2_tlb.hits            0                       # Total TLB (inst and data) hits
system.cpu.itb.stage2_mmu.stage2_tlb.misses            0                       # Total TLB (inst and data) misses
system.cpu.itb.stage2_mmu.stage2_tlb.accesses            0                       # Total TLB (inst and data) accesses
system.cpu.itb.stage2_mmu.stage2_tlb.walker.walks            0                       # Table walker walks requested
system.cpu.itb.stage2_mmu.stage2_tlb.walker.requestOrigin_Requested::Data            0                       # Table walker requests started/completed, data/inst
system.cpu.itb.stage2_mmu.stage2_tlb.walker.requestOrigin_Requested::Inst            0                       # Table walker requests started/completed, data/inst
system.cpu.itb.stage2_mmu.stage2_tlb.walker.requestOrigin_Requested::total            0                       # Table walker requests started/completed, data/inst
system.cpu.itb.stage2_mmu.stage2_tlb.walker.requestOrigin_Completed::Data            0                       # Table walker requests started/completed, data/inst
system.cpu.itb.stage2_mmu.stage2_tlb.walker.requestOrigin_Completed::Inst            0                       # Table walker requests started/completed, data/inst
system.cpu.itb.stage2_mmu.stage2_tlb.walker.requestOrigin_Completed::total            0                       # Table walker requests started/completed, data/inst
system.cpu.itb.stage2_mmu.stage2_tlb.walker.requestOrigin::total            0                       # Table walker requests started/completed, data/inst
system.cpu.itb.stage2_mmu.stage2_tlb.walker.power_state.pwrStateResidencyTicks::UNDEFINED  59944277000                       # Cumulative time (in ticks) in various power states
system.cpu.itb.walker.walks                         0                       # Table walker walks requested
system.cpu.itb.walker.requestOrigin_Requested::Data            0                       # Table walker requests started/completed, data/inst
system.cpu.itb.walker.requestOrigin_Requested::Inst            0                       # Table walker requests started/completed, data/inst
system.cpu.itb.walker.requestOrigin_Requested::total            0                       # Table walker requests started/completed, data/inst
system.cpu.itb.walker.requestOrigin_Completed::Data            0                       # Table walker requests started/completed, data/inst
system.cpu.itb.walker.requestOrigin_Completed::Inst            0                       # Table walker requests started/completed, data/inst
system.cpu.itb.walker.requestOrigin_Completed::total            0                       # Table walker requests started/completed, data/inst
system.cpu.itb.walker.requestOrigin::total            0                       # Table walker requests started/completed, data/inst
system.cpu.itb.walker.power_state.pwrStateResidencyTicks::UNDEFINED  59944277000                       # Cumulative time (in ticks) in various power states
system.cpu.power_state.pwrStateResidencyTicks::ON  59944277000                       # Cumulative time (in ticks) in various power states
system.cpu.thread_0.numInsts                100000001                       # Number of Instructions committed
system.cpu.thread_0.numOps                  109093866                       # Number of Ops committed
system.cpu.thread_0.numMemRefs                      0                       # Number of Memory References
system.cpu_clk_domain.clock                       500                       # Clock period in ticks
system.cpu_voltage_domain.voltage                   1                       # Voltage in Volts
system.l2.demand_hits::.cpu.inst                    5                       # number of demand (read+write) hits
system.l2.demand_hits::.cpu.data                15362                       # number of demand (read+write) hits
system.l2.demand_hits::total                    15367                       # number of demand (read+write) hits
system.l2.overall_hits::.cpu.inst                   5                       # number of overall hits
system.l2.overall_hits::.cpu.data               15362                       # number of overall hits
system.l2.overall_hits::total                   15367                       # number of overall hits
system.l2.demand_misses::.cpu.inst                606                       # number of demand (read+write) misses
system.l2.demand_misses::.cpu.data              39688                       # number of demand (read+write) misses
system.l2.demand_misses::total                  40294                       # number of demand (read+write) misses
system.l2.overall_misses::.cpu.inst               606                       # number of overall misses
system.l2.overall_misses::.cpu.data             39688                       # number of overall misses
system.l2.overall_misses::total                 40294                       # number of overall misses
system.l2.demand_miss_latency::.cpu.inst     45688500                       # number of demand (read+write) miss cycles
system.l2.demand_miss_latency::.cpu.data   3085468000                       # number of demand (read+write) miss cycles
system.l2.demand_miss_latency::total       3131156500                       # number of demand (read+write) miss cycles
system.l2.overall_miss_latency::.cpu.inst     45688500                       # number of overall miss cycles
system.l2.overall_miss_latency::.cpu.data   3085468000                       # number of overall miss cycles
system.l2.overall_miss_latency::total      3131156500                       # number of overall miss cycles
system.l2.demand_accesses::.cpu.inst              611                       # number of demand (read+write) accesses
system.l2.demand_accesses::.cpu.data            55050                       # number of demand (read+write) accesses
system.l2.demand_accesses::total                55661                       # number of demand (read+write) accesses
system.l2.overall_accesses::.cpu.inst             611                       # number of overall (read+write) accesses
system.l2.overall_accesses::.cpu.data           55050                       # number of overall (read+write) accesses
system.l2.overall_accesses::total               55661                       # number of overall (read+write) accesses
system.l2.demand_miss_rate::.cpu.inst        0.991817                       # miss rate for demand accesses
system.l2.demand_miss_rate::.cpu.data        0.720945                       # miss rate for demand accesses
system.l2.demand_miss_rate::total            0.723918                       # miss rate for demand accesses
system.l2.overall_miss_rate::.cpu.inst       0.991817                       # miss rate for overall accesses
system.l2.overall_miss_rate::.cpu.data       0.720945                       # miss rate for overall accesses
system.l2.overall_miss_rate::total           0.723918                       # miss rate for overall accesses
system.l2.demand_avg_miss_latency::.cpu.inst 75393.564356                       # average overall miss latency
system.l2.demand_avg_miss_latency::.cpu.data 77743.096150                       # average overall miss latency
system.l2.demand_avg_miss_latency::total 77707.760461                       # average overall miss latency
system.l2.overall_avg_miss_latency::.cpu.inst 75393.564356                       # average overall miss latency
system.l2.overall_avg_miss_latency::.cpu.data 77743.096150                       # average overall miss latency
system.l2.overall_avg_miss_latency::total 77707.760461                       # average overall miss latency
system.l2.blocked_cycles::no_mshrs                  0                       # number of cycles access was blocked
system.l2.blocked_cycles::no_targets                0                       # number of cycles access was blocked
system.l2.blocked::no_mshrs                         0                       # number of cycles access was blocked
system.l2.blocked::no_targets                       0                       # number of cycles access was blocked
system.l2.avg_blocked_cycles::no_mshrs            nan                       # average number of cycles each access was blocked
system.l2.avg_blocked_cycles::no_targets          nan                       # average number of cycles each access was blocked
system.l2.writebacks::.writebacks                6874                       # number of writebacks
system.l2.writebacks::total                      6874                       # number of writebacks
system.l2.demand_mshr_hits::.cpu.data               3                       # number of demand (read+write) MSHR hits
system.l2.demand_mshr_hits::total                   3                       # number of demand (read+write) MSHR hits
system.l2.overall_mshr_hits::.cpu.data              3                       # number of overall MSHR hits
system.l2.overall_mshr_hits::total                  3                       # number of overall MSHR hits
system.l2.demand_mshr_misses::.cpu.inst           606                       # number of demand (read+write) MSHR misses
system.l2.demand_mshr_misses::.cpu.data         39685                       # number of demand (read+write) MSHR misses
system.l2.demand_mshr_misses::total             40291                       # number of demand (read+write) MSHR misses
system.l2.overall_mshr_misses::.cpu.inst          606                       # number of overall MSHR misses
system.l2.overall_mshr_misses::.cpu.data        39685                       # number of overall MSHR misses
system.l2.overall_mshr_misses::total            40291                       # number of overall MSHR misses
system.l2.demand_mshr_miss_latency::.cpu.inst     39628500                       # number of demand (read+write) MSHR miss cycles
system.l2.demand_mshr_miss_latency::.cpu.data   2688416500                       # number of demand (read+write) MSHR miss cycles
system.l2.demand_mshr_miss_latency::total   2728045000                       # number of demand (read+write) MSHR miss cycles
system.l2.overall_mshr_miss_latency::.cpu.inst     39628500                       # number of overall MSHR miss cycles
system.l2.overall_mshr_miss_latency::.cpu.data   2688416500                       # number of overall MSHR miss cycles
system.l2.overall_mshr_miss_latency::total   2728045000                       # number of overall MSHR miss cycles
system.l2.demand_mshr_miss_rate::.cpu.inst     0.991817                       # mshr miss rate for demand accesses
system.l2.demand_mshr_miss_rate::.cpu.data     0.720890                       # mshr miss rate for demand accesses
system.l2.demand_mshr_miss_rate::total       0.723864                       # mshr miss rate for demand accesses
system.l2.overall_mshr_miss_rate::.cpu.inst     0.991817                       # mshr miss rate for overall accesses
system.l2.overall_mshr_miss_rate::.cpu.data     0.720890                       # mshr miss rate for overall accesses
system.l2.overall_mshr_miss_rate::total      0.723864                       # mshr miss rate for overall accesses
system.l2.demand_avg_mshr_miss_latency::.cpu.inst 65393.564356                       # average overall mshr miss latency
system.l2.demand_avg_mshr_miss_latency::.cpu.data 67743.895678                       # average overall mshr miss latency
system.l2.demand_avg_mshr_miss_latency::total 67708.545333                       # average overall mshr miss latency
system.l2.overall_avg_mshr_miss_latency::.cpu.inst 65393.564356                       # average overall mshr miss latency
system.l2.overall_avg_mshr_miss_latency::.cpu.data 67743.895678                       # average overall mshr miss latency
system.l2.overall_avg_mshr_miss_latency::total 67708.545333                       # average overall mshr miss latency
system.l2.replacements                           7526                       # number of replacements
system.l2.WritebackDirty_hits::.writebacks        50509                       # number of WritebackDirty hits
system.l2.WritebackDirty_hits::total            50509                       # number of WritebackDirty hits
system.l2.WritebackDirty_accesses::.writebacks        50509                       # number of WritebackDirty accesses(hits+misses)
system.l2.WritebackDirty_accesses::total        50509                       # number of WritebackDirty accesses(hits+misses)
system.l2.CleanEvict_mshr_misses::.writebacks            3                       # number of CleanEvict MSHR misses
system.l2.CleanEvict_mshr_misses::total             3                       # number of CleanEvict MSHR misses
system.l2.CleanEvict_mshr_miss_rate::.writebacks          inf                       # mshr miss rate for CleanEvict accesses
system.l2.CleanEvict_mshr_miss_rate::total          inf                       # mshr miss rate for CleanEvict accesses
system.l2.ReadExReq_hits::.cpu.data                75                       # number of ReadExReq hits
system.l2.ReadExReq_hits::total                    75                       # number of ReadExReq hits
system.l2.ReadExReq_misses::.cpu.data           39086                       # number of ReadExReq misses
system.l2.ReadExReq_misses::total               39086                       # number of ReadExReq misses
system.l2.ReadExReq_miss_latency::.cpu.data   3032235500                       # number of ReadExReq miss cycles
system.l2.ReadExReq_miss_latency::total    3032235500                       # number of ReadExReq miss cycles
system.l2.ReadExReq_accesses::.cpu.data         39161                       # number of ReadExReq accesses(hits+misses)
system.l2.ReadExReq_accesses::total             39161                       # number of ReadExReq accesses(hits+misses)
system.l2.ReadExReq_miss_rate::.cpu.data     0.998085                       # miss rate for ReadExReq accesses
system.l2.ReadExReq_miss_rate::total         0.998085                       # miss rate for ReadExReq accesses
system.l2.ReadExReq_avg_miss_latency::.cpu.data 77578.557540                       # average ReadExReq miss latency
system.l2.ReadExReq_avg_miss_latency::total 77578.557540                       # average ReadExReq miss latency
system.l2.ReadExReq_mshr_misses::.cpu.data        39086                       # number of ReadExReq MSHR misses
system.l2.ReadExReq_mshr_misses::total          39086                       # number of ReadExReq MSHR misses
system.l2.ReadExReq_mshr_miss_latency::.cpu.data   2641375500                       # number of ReadExReq MSHR miss cycles
system.l2.ReadExReq_mshr_miss_latency::total   2641375500                       # number of ReadExReq MSHR miss cycles
system.l2.ReadExReq_mshr_miss_rate::.cpu.data     0.998085                       # mshr miss rate for ReadExReq accesses
system.l2.ReadExReq_mshr_miss_rate::total     0.998085                       # mshr miss rate for ReadExReq accesses
system.l2.ReadExReq_avg_mshr_miss_latency::.cpu.data 67578.557540                       # average ReadExReq mshr miss latency
system.l2.ReadExReq_avg_mshr_miss_latency::total 67578.557540                       # average ReadExReq mshr miss latency
system.l2.ReadCleanReq_hits::.cpu.inst              5                       # number of ReadCleanReq hits
system.l2.ReadCleanReq_hits::total                  5                       # number of ReadCleanReq hits
system.l2.ReadCleanReq_misses::.cpu.inst          606                       # number of ReadCleanReq misses
system.l2.ReadCleanReq_misses::total              606                       # number of ReadCleanReq misses
system.l2.ReadCleanReq_miss_latency::.cpu.inst     45688500                       # number of ReadCleanReq miss cycles
system.l2.ReadCleanReq_miss_latency::total     45688500                       # number of ReadCleanReq miss cycles
system.l2.ReadCleanReq_accesses::.cpu.inst          611                       # number of ReadCleanReq accesses(hits+misses)
system.l2.ReadCleanReq_accesses::total            611                       # number of ReadCleanReq accesses(hits+misses)
system.l2.ReadCleanReq_miss_rate::.cpu.inst     0.991817                       # miss rate for ReadCleanReq accesses
system.l2.ReadCleanReq_miss_rate::total      0.991817                       # miss rate for ReadCleanReq accesses
system.l2.ReadCleanReq_avg_miss_latency::.cpu.inst 75393.564356                       # average ReadCleanReq miss latency
system.l2.ReadCleanReq_avg_miss_latency::total 75393.564356                       # average ReadCleanReq miss latency
system.l2.ReadCleanReq_mshr_misses::.cpu.inst          606                       # number of ReadCleanReq MSHR misses
system.l2.ReadCleanReq_mshr_misses::total          606                       # number of ReadCleanReq MSHR misses
system.l2.ReadCleanReq_mshr_miss_latency::.cpu.inst     39628500                       # number of ReadCleanReq MSHR miss cycles
system.l2.ReadCleanReq_mshr_miss_latency::total     39628500                       # number of ReadCleanReq MSHR miss cycles
system.l2.ReadCleanReq_mshr_miss_rate::.cpu.inst     0.991817                       # mshr miss rate for ReadCleanReq accesses
system.l2.ReadCleanReq_mshr_miss_rate::total     0.991817                       # mshr miss rate for ReadCleanReq accesses
system.l2.ReadCleanReq_avg_mshr_miss_latency::.cpu.inst 65393.564356                       # average ReadCleanReq mshr miss latency
system.l2.ReadCleanReq_avg_mshr_miss_latency::total 65393.564356                       # average ReadCleanReq mshr miss latency
system.l2.ReadSharedReq_hits::.cpu.data         15287                       # number of ReadSharedReq hits
system.l2.ReadSharedReq_hits::total             15287                       # number of ReadSharedReq hits
system.l2.ReadSharedReq_misses::.cpu.data          602                       # number of ReadSharedReq misses
system.l2.ReadSharedReq_misses::total             602                       # number of ReadSharedReq misses
system.l2.ReadSharedReq_miss_latency::.cpu.data     53232500                       # number of ReadSharedReq miss cycles
system.l2.ReadSharedReq_miss_latency::total     53232500                       # number of ReadSharedReq miss cycles
system.l2.ReadSharedReq_accesses::.cpu.data        15889                       # number of ReadSharedReq accesses(hits+misses)
system.l2.ReadSharedReq_accesses::total         15889                       # number of ReadSharedReq accesses(hits+misses)
system.l2.ReadSharedReq_miss_rate::.cpu.data     0.037888                       # miss rate for ReadSharedReq accesses
system.l2.ReadSharedReq_miss_rate::total     0.037888                       # miss rate for ReadSharedReq accesses
system.l2.ReadSharedReq_avg_miss_latency::.cpu.data 88426.079734                       # average ReadSharedReq miss latency
system.l2.ReadSharedReq_avg_miss_latency::total 88426.079734                       # average ReadSharedReq miss latency
system.l2.ReadSharedReq_mshr_hits::.cpu.data            3                       # number of ReadSharedReq MSHR hits
system.l2.ReadSharedReq_mshr_hits::total            3                       # number of ReadSharedReq MSHR hits
system.l2.ReadSharedReq_mshr_misses::.cpu.data          599                       # number of ReadSharedReq MSHR misses
system.l2.ReadSharedReq_mshr_misses::total          599                       # number of ReadSharedReq MSHR misses
system.l2.ReadSharedReq_mshr_miss_latency::.cpu.data     47041000                       # number of ReadSharedReq MSHR miss cycles
system.l2.ReadSharedReq_mshr_miss_latency::total     47041000                       # number of ReadSharedReq MSHR miss cycles
system.l2.ReadSharedReq_mshr_miss_rate::.cpu.data     0.037699                       # mshr miss rate for ReadSharedReq accesses
system.l2.ReadSharedReq_mshr_miss_rate::total     0.037699                       # mshr miss rate for ReadSharedReq accesses
system.l2.ReadSharedReq_avg_mshr_miss_latency::.cpu.data 78532.554257                       # average ReadSharedReq mshr miss latency
system.l2.ReadSharedReq_avg_mshr_miss_latency::total 78532.554257                       # average ReadSharedReq mshr miss latency
system.l2.power_state.pwrStateResidencyTicks::UNDEFINED  59944277000                       # Cumulative time (in ticks) in various power states
system.l2.tags.tagsinuse                 26411.084274                       # Cycle average of tags in use
system.l2.tags.total_refs                      109661                       # Total number of references to valid blocks.
system.l2.tags.sampled_refs                     40294                       # Sample count of references to valid blocks.
system.l2.tags.avg_refs                      2.721522                       # Average number of references to valid blocks.
system.l2.tags.warmup_cycle                     77000                       # Cycle when the warmup percentage was hit.
system.l2.tags.occ_blocks::.writebacks       0.310502                       # Average occupied blocks per requestor
system.l2.tags.occ_blocks::.cpu.inst       358.496334                       # Average occupied blocks per requestor
system.l2.tags.occ_blocks::.cpu.data     26052.277438                       # Average occupied blocks per requestor
system.l2.tags.occ_percent::.writebacks      0.000009                       # Average percentage of cache occupancy
system.l2.tags.occ_percent::.cpu.inst        0.010940                       # Average percentage of cache occupancy
system.l2.tags.occ_percent::.cpu.data        0.795052                       # Average percentage of cache occupancy
system.l2.tags.occ_percent::total            0.806002                       # Average percentage of cache occupancy
system.l2.tags.occ_task_id_blocks::1024         32768                       # Occupied blocks per task id
system.l2.tags.age_task_id_blocks_1024::0            7                       # Occupied blocks per task id
system.l2.tags.age_task_id_blocks_1024::1           35                       # Occupied blocks per task id
system.l2.tags.age_task_id_blocks_1024::2          426                       # Occupied blocks per task id
system.l2.tags.age_task_id_blocks_1024::3         3638                       # Occupied blocks per task id
system.l2.tags.age_task_id_blocks_1024::4        28662                       # Occupied blocks per task id
system.l2.tags.occ_task_id_percent::1024            1                       # Percentage of cache occupancy per task id
system.l2.tags.tag_accesses                    917630                       # Number of tag accesses
system.l2.tags.data_accesses                   917630                       # Number of data accesses
system.l2.tags.power_state.pwrStateResidencyTicks::UNDEFINED  59944277000                       # Cumulative time (in ticks) in various power states
system.mem_ctrls.avgPriority_.writebacks::samples      6874.00                       # Average QoS priority value for accepted requests
system.mem_ctrls.avgPriority_.cpu.inst::samples       606.00                       # Average QoS priority value for accepted requests
system.mem_ctrls.avgPriority_.cpu.data::samples     39682.00                       # Average QoS priority value for accepted requests
system.mem_ctrls.priorityMinLatency      0.000000018750                       # per QoS priority minimum request to response latency (s)
system.mem_ctrls.priorityMaxLatency      0.016450206500                       # per QoS priority maximum request to response latency (s)
system.mem_ctrls.numReadWriteTurnArounds          381                       # Number of turnarounds from READ to WRITE
system.mem_ctrls.numWriteReadTurnArounds          381                       # Number of turnarounds from WRITE to READ
system.mem_ctrls.numStayReadState              102820                       # Number of times bus staying in READ state
system.mem_ctrls.numStayWriteState               6485                       # Number of times bus staying in WRITE state
system.mem_ctrls.readReqs                       40291                       # Number of read requests accepted
system.mem_ctrls.writeReqs                       6874                       # Number of write requests accepted
system.mem_ctrls.readBursts                     40291                       # Number of controller read bursts, including those serviced by the write queue
system.mem_ctrls.writeBursts                     6874                       # Number of controller write bursts, including those merged in the write queue
system.mem_ctrls.servicedByWrQ                      3                       # Number of controller read bursts serviced by the write queue
system.mem_ctrls.mergedWrBursts                     0                       # Number of controller write bursts merged with an existing one
system.mem_ctrls.neitherReadNorWriteReqs            0                       # Number of requests that are neither read nor write
system.mem_ctrls.avgRdQLen                       1.01                       # Average read queue length when enqueuing
system.mem_ctrls.avgWrQLen                       8.33                       # Average write queue length when enqueuing
system.mem_ctrls.numRdRetry                         0                       # Number of times read queue was full causing retry
system.mem_ctrls.numWrRetry                         0                       # Number of times write queue was full causing retry
system.mem_ctrls.readPktSize::0                     0                       # Read request sizes (log2)
system.mem_ctrls.readPktSize::1                     0                       # Read request sizes (log2)
system.mem_ctrls.readPktSize::2                     0                       # Read request sizes (log2)
system.mem_ctrls.readPktSize::3                     0                       # Read request sizes (log2)
system.mem_ctrls.readPktSize::4                     0                       # Read request sizes (log2)
system.mem_ctrls.readPktSize::5                     0                       # Read request sizes (log2)
system.mem_ctrls.readPktSize::6                 40291                       # Read request sizes (log2)
system.mem_ctrls.writePktSize::0                    0                       # Write request sizes (log2)
system.mem_ctrls.writePktSize::1                    0                       # Write request sizes (log2)
system.mem_ctrls.writePktSize::2                    0                       # Write request sizes (log2)
[...]
system.mem_ctrls.dram.bw_inst_read::total       647001                       # Instruction read bandwidth from this memory (bytes/s)
system.mem_ctrls.dram.bw_write::.writebacks      7339083                       # Write bandwidth from this memory (bytes/s)
system.mem_ctrls.dram.bw_write::total         7339083                       # Write bandwidth from this memory (bytes/s)
system.mem_ctrls.dram.bw_total::.writebacks      7339083                       # Total bandwidth to/from this memory (bytes/s)
system.mem_ctrls.dram.bw_total::.cpu.inst       647001                       # Total bandwidth to/from this memory (bytes/s)
system.mem_ctrls.dram.bw_total::.cpu.data     42370016                       # Total bandwidth to/from this memory (bytes/s)
system.mem_ctrls.dram.bw_total::total        50356100                       # Total bandwidth to/from this memory (bytes/s)
system.mem_ctrls.dram.readBursts                40288                       # Number of DRAM read bursts
system.mem_ctrls.dram.writeBursts                6857                       # Number of DRAM write bursts
system.mem_ctrls.dram.perBankRdBursts::0         2488                       # Per bank write bursts
system.mem_ctrls.dram.perBankRdBursts::1         2518                       # Per bank write bursts
system.mem_ctrls.dram.perBankRdBursts::2         2537                       # Per bank write bursts
system.mem_ctrls.dram.perBankRdBursts::3         2598                       # Per bank write bursts
system.mem_ctrls.dram.perBankRdBursts::4         2537                       # Per bank write bursts
system.mem_ctrls.dram.perBankRdBursts::5         2512                       # Per bank write bursts
system.mem_ctrls.dram.perBankRdBursts::6         2484                       # Per bank write bursts
system.mem_ctrls.dram.perBankRdBursts::7         2533                       # Per bank write bursts
system.mem_ctrls.dram.perBankRdBursts::8         2503                       # Per bank write bursts
system.mem_ctrls.dram.perBankRdBursts::9         2496                       # Per bank write bursts
system.mem_ctrls.dram.perBankRdBursts::10         2484                       # Per bank write bursts
system.mem_ctrls.dram.perBankRdBursts::11         2497                       # Per bank write bursts
system.mem_ctrls.dram.perBankRdBursts::12         2495                       # Per bank write bursts
system.mem_ctrls.dram.perBankRdBursts::13         2552                       # Per bank write bursts
system.mem_ctrls.dram.perBankRdBursts::14         2524                       # Per bank write bursts
system.mem_ctrls.dram.perBankRdBursts::15         2530                       # Per bank write bursts
system.mem_ctrls.dram.perBankWrBursts::0          409                       # Per bank write bursts
system.mem_ctrls.dram.perBankWrBursts::1          413                       # Per bank write bursts
system.mem_ctrls.dram.perBankWrBursts::2          467                       # Per bank write bursts
system.mem_ctrls.dram.perBankWrBursts::3          544                       # Per bank write bursts
system.mem_ctrls.dram.perBankWrBursts::4          453                       # Per bank write bursts
system.mem_ctrls.dram.perBankWrBursts::5          391                       # Per bank write bursts
system.mem_ctrls.dram.perBankWrBursts::6          419                       # Per bank write bursts
system.mem_ctrls.dram.perBankWrBursts::7          404                       # Per bank write bursts
system.mem_ctrls.dram.perBankWrBursts::8          410                       # Per bank write bursts
system.mem_ctrls.dram.perBankWrBursts::9          418                       # Per bank write bursts
system.mem_ctrls.dram.perBankWrBursts::10          398                       # Per bank write bursts
system.mem_ctrls.dram.perBankWrBursts::11          416                       # Per bank write bursts
system.mem_ctrls.dram.perBankWrBursts::12          412                       # Per bank write bursts
system.mem_ctrls.dram.perBankWrBursts::13          436                       # Per bank write bursts
system.mem_ctrls.dram.perBankWrBursts::14          437                       # Per bank write bursts
system.mem_ctrls.dram.perBankWrBursts::15          430                       # Per bank write bursts
system.mem_ctrls.dram.totQLat               317036750                       # Total ticks spent queuing
system.mem_ctrls.dram.totBusLat             201440000                       # Total ticks spent in databus transfers
system.mem_ctrls.dram.totMemAccLat         1072436750                       # Total ticks spent from burst creation until serviced by the DRAM
system.mem_ctrls.dram.avgQLat                 7869.26                       # Average queueing delay per DRAM burst
system.mem_ctrls.dram.avgBusLat               5000.00                       # Average bus latency per DRAM burst
system.mem_ctrls.dram.avgMemAccLat           26619.26                       # Average memory access latency per DRAM burst
system.mem_ctrls.dram.readRowHits               30317                       # Number of row buffer hits during reads
system.mem_ctrls.dram.writeRowHits               5703                       # Number of row buffer hits during writes
system.mem_ctrls.dram.readRowHitRate            75.25                       # Row buffer hit rate for reads
system.mem_ctrls.dram.writeRowHitRate           83.17                       # Row buffer hit rate for writes
system.mem_ctrls.dram.bytesPerActivate::samples        11121                       # Bytes accessed per row activation
system.mem_ctrls.dram.bytesPerActivate::mean   271.290711                       # Bytes accessed per row activation
system.mem_ctrls.dram.bytesPerActivate::gmean   207.715103                       # Bytes accessed per row activation
system.mem_ctrls.dram.bytesPerActivate::stdev   232.683644                       # Bytes accessed per row activation
system.mem_ctrls.dram.bytesPerActivate::0-127         1393     12.53%     12.53% # Bytes accessed per row activation
system.mem_ctrls.dram.bytesPerActivate::128-255         7072     63.59%     76.12% # Bytes accessed per row activation
system.mem_ctrls.dram.bytesPerActivate::256-383          557      5.01%     81.13% # Bytes accessed per row activation
system.mem_ctrls.dram.bytesPerActivate::384-511          333      2.99%     84.12% # Bytes accessed per row activation
system.mem_ctrls.dram.bytesPerActivate::512-639          479      4.31%     88.43% # Bytes accessed per row activation
system.mem_ctrls.dram.bytesPerActivate::640-767          444      3.99%     92.42% # Bytes accessed per row activation
system.mem_ctrls.dram.bytesPerActivate::768-895          171      1.54%     93.96% # Bytes accessed per row activation
system.mem_ctrls.dram.bytesPerActivate::896-1023          469      4.22%     98.17% # Bytes accessed per row activation
system.mem_ctrls.dram.bytesPerActivate::1024-1151          203      1.83%    100.00% # Bytes accessed per row activation
system.mem_ctrls.dram.bytesPerActivate::total        11121                       # Bytes accessed per row activation
system.mem_ctrls.dram.bytesRead               2578432                       # Total number of bytes read from DRAM
system.mem_ctrls.dram.bytesWritten             438848                       # Total number of bytes written to DRAM
system.mem_ctrls.dram.avgRdBW               43.013814                       # Average DRAM read bandwidth in MiBytes/s
system.mem_ctrls.dram.avgWrBW                7.320932                       # Average DRAM write bandwidth in MiBytes/s
system.mem_ctrls.dram.peakBW                 12800.00                       # Theoretical peak bandwidth in MiByte/s
system.mem_ctrls.dram.busUtil                    0.39                       # Data bus utilization in percentage
system.mem_ctrls.dram.busUtilRead                0.34                       # Data bus utilization in percentage for reads
system.mem_ctrls.dram.busUtilWrite               0.06                       # Data bus utilization in percentage for writes
system.mem_ctrls.dram.pageHitRate               76.40                       # Row buffer hit rate, read and write combined
system.mem_ctrls.dram.power_state.pwrStateResidencyTicks::UNDEFINED  59944277000                       # Cumulative time (in ticks) in various power states
system.mem_ctrls.dram.rank0.actEnergy        40291020                       # Energy for activate commands per rank (pJ)
system.mem_ctrls.dram.rank0.preEnergy        21403800                       # Energy for precharge commands per rank (pJ)
system.mem_ctrls.dram.rank0.readEnergy      144277980                       # Energy for read commands per rank (pJ)
system.mem_ctrls.dram.rank0.writeEnergy      18270000                       # Energy for write commands per rank (pJ)
system.mem_ctrls.dram.rank0.refreshEnergy 4731498720.000001                       # Energy for refresh commands per rank (pJ)
system.mem_ctrls.dram.rank0.actBackEnergy  12986581890                       # Energy for active background per rank (pJ)
system.mem_ctrls.dram.rank0.preBackEnergy  12082533600                       # Energy for precharge background per rank (pJ)
system.mem_ctrls.dram.rank0.actPowerDownEnergy            0                       # Energy for active power-down per rank (pJ)
system.mem_ctrls.dram.rank0.prePowerDownEnergy            0                       # Energy for precharge power-down per rank (pJ)
system.mem_ctrls.dram.rank0.selfRefreshEnergy            0                       # Energy for self refresh per rank (pJ)
system.mem_ctrls.dram.rank0.totalEnergy   30024857010                       # Total energy per rank (pJ)
system.mem_ctrls.dram.rank0.averagePower   500.879459                       # Core power per rank (mW)
system.mem_ctrls.dram.rank0.totalIdleTime            0                       # Total Idle time Per DRAM Rank
system.mem_ctrls.dram.rank0.pwrStateTime::IDLE  31295774500                       # Time in different power states
system.mem_ctrls.dram.rank0.pwrStateTime::REF   2001480000                       # Time in different power states
system.mem_ctrls.dram.rank0.pwrStateTime::SREF            0                       # Time in different power states
system.mem_ctrls.dram.rank0.pwrStateTime::PRE_PDN            0                       # Time in different power states
system.mem_ctrls.dram.rank0.pwrStateTime::ACT  26647022500                       # Time in different power states
system.mem_ctrls.dram.rank0.pwrStateTime::ACT_PDN            0                       # Time in different power states
system.mem_ctrls.dram.rank1.actEnergy        39141480                       # Energy for activate commands per rank (pJ)
system.mem_ctrls.dram.rank1.preEnergy        20800395                       # Energy for precharge commands per rank (pJ)
system.mem_ctrls.dram.rank1.readEnergy      143378340                       # Energy for read commands per rank (pJ)
system.mem_ctrls.dram.rank1.writeEnergy      17523540                       # Energy for write commands per rank (pJ)
system.mem_ctrls.dram.rank1.refreshEnergy 4731498720.000001                       # Energy for refresh commands per rank (pJ)
system.mem_ctrls.dram.rank1.actBackEnergy  12690906360                       # Energy for active background per rank (pJ)
system.mem_ctrls.dram.rank1.preBackEnergy  12331523520                       # Energy for precharge background per rank (pJ)
system.mem_ctrls.dram.rank1.actPowerDownEnergy            0                       # Energy for active power-down per rank (pJ)
system.mem_ctrls.dram.rank1.prePowerDownEnergy            0                       # Energy for precharge power-down per rank (pJ)
system.mem_ctrls.dram.rank1.selfRefreshEnergy            0                       # Energy for self refresh per rank (pJ)
system.mem_ctrls.dram.rank1.totalEnergy   29974772355                       # Total energy per rank (pJ)
system.mem_ctrls.dram.rank1.averagePower   500.043938                       # Core power per rank (mW)
system.mem_ctrls.dram.rank1.totalIdleTime            0                       # Total Idle time Per DRAM Rank
system.mem_ctrls.dram.rank1.pwrStateTime::IDLE  31946250250                       # Time in different power states
system.mem_ctrls.dram.rank1.pwrStateTime::REF   2001480000                       # Time in different power states
system.mem_ctrls.dram.rank1.pwrStateTime::SREF            0                       # Time in different power states
system.mem_ctrls.dram.rank1.pwrStateTime::PRE_PDN            0                       # Time in different power states
system.mem_ctrls.dram.rank1.pwrStateTime::ACT  25996546750                       # Time in different power states
system.mem_ctrls.dram.rank1.pwrStateTime::ACT_PDN            0                       # Time in different power states
system.mem_ctrls.power_state.pwrStateResidencyTicks::UNDEFINED  59944277000                       # Cumulative time (in ticks) in various power states
system.membus.trans_dist::ReadResp               1205                       # Transaction distribution
system.membus.trans_dist::WritebackDirty         6874                       # Transaction distribution
system.membus.trans_dist::CleanEvict               36                       # Transaction distribution
system.membus.trans_dist::ReadExReq             39086                       # Transaction distribution
system.membus.trans_dist::ReadExResp            39086                       # Transaction distribution
system.membus.trans_dist::ReadSharedReq          1205                       # Transaction distribution
system.membus.pkt_count_system.l2.mem_side_port::system.mem_ctrls.port        87492                       # Packet count per connected requestor and responder (bytes)
system.membus.pkt_count::total                  87492                       # Packet count per connected requestor and responder (bytes)
system.membus.pkt_size_system.l2.mem_side_port::system.mem_ctrls.port      3018560                       # Cumulative packet size per connected requestor and responder (bytes)
system.membus.pkt_size::total                 3018560                       # Cumulative packet size per connected requestor and responder (bytes)
system.membus.snoops                                0                       # Total snoops (count)
system.membus.snoopTraffic                          0                       # Total snoop traffic (bytes)
system.membus.snoop_fanout::samples             40291                       # Request fanout histogram
system.membus.snoop_fanout::mean                    0                       # Request fanout histogram
system.membus.snoop_fanout::stdev                   0                       # Request fanout histogram
system.membus.snoop_fanout::underflows              0      0.00%      0.00% # Request fanout histogram
system.membus.snoop_fanout::0                   40291    100.00%    100.00% # Request fanout histogram
system.membus.snoop_fanout::1                       0      0.00%    100.00% # Request fanout histogram
system.membus.snoop_fanout::overflows               0      0.00%    100.00% # Request fanout histogram
system.membus.snoop_fanout::min_value               0                       # Request fanout histogram
system.membus.snoop_fanout::max_value               0                       # Request fanout histogram
system.membus.snoop_fanout::total               40291                       # Request fanout histogram
system.membus.power_state.pwrStateResidencyTicks::UNDEFINED  59944277000                       # Cumulative time (in ticks) in various power states
system.membus.reqLayer0.occupancy            86023500                       # Layer occupancy (ticks)
system.membus.reqLayer0.utilization               0.1                       # Layer utilization (%)
system.membus.respLayer1.occupancy          213958000                       # Layer occupancy (ticks)
system.membus.respLayer1.utilization              0.4                       # Layer utilization (%)
system.tol2bus.trans_dist::ReadResp             16500                       # Transaction distribution
system.tol2bus.trans_dist::WritebackDirty        57383                       # Transaction distribution
system.tol2bus.trans_dist::CleanEvict            4169                       # Transaction distribution
system.tol2bus.trans_dist::ReadExReq            39161                       # Transaction distribution
system.tol2bus.trans_dist::ReadExResp           39161                       # Transaction distribution
system.tol2bus.trans_dist::ReadCleanReq           611                       # Transaction distribution
system.tol2bus.trans_dist::ReadSharedReq        15889                       # Transaction distribution
system.tol2bus.pkt_count_system.cpu.icache.mem_side_port::system.l2.cpu_side_port         1222                       # Packet count per connected requestor and responder (bytes)
system.tol2bus.pkt_count_system.cpu.dcache.mem_side_port::system.l2.cpu_side_port       164126                       # Packet count per connected requestor and responder (bytes)
system.tol2bus.pkt_count::total                165348                       # Packet count per connected requestor and responder (bytes)
system.tol2bus.pkt_size_system.cpu.icache.mem_side_port::system.l2.cpu_side_port        39104                       # Cumulative packet size per connected requestor and responder (bytes)
system.tol2bus.pkt_size_system.cpu.dcache.mem_side_port::system.l2.cpu_side_port      6755776                       # Cumulative packet size per connected requestor and responder (bytes)
system.tol2bus.pkt_size::total                6794880                       # Cumulative packet size per connected requestor and responder (bytes)
system.tol2bus.snoops                            7526                       # Total snoops (count)
system.tol2bus.snoopTraffic                    439936                       # Total snoop traffic (bytes)
system.tol2bus.snoop_fanout::samples            63187                       # Request fanout histogram
system.tol2bus.snoop_fanout::mean            0.010208                       # Request fanout histogram
system.tol2bus.snoop_fanout::stdev           0.100989                       # Request fanout histogram
system.tol2bus.snoop_fanout::underflows             0      0.00%      0.00% # Request fanout histogram
system.tol2bus.snoop_fanout::0                  62545     98.98%     98.98% # Request fanout histogram
system.tol2bus.snoop_fanout::1                    639      1.01%    100.00% # Request fanout histogram
system.tol2bus.snoop_fanout::2                      3      0.00%    100.00% # Request fanout histogram
system.tol2bus.snoop_fanout::overflows              0      0.00%    100.00% # Request fanout histogram
system.tol2bus.snoop_fanout::min_value              0                       # Request fanout histogram
system.tol2bus.snoop_fanout::max_value              2                       # Request fanout histogram
system.tol2bus.snoop_fanout::total              63187                       # Request fanout histogram
system.tol2bus.power_state.pwrStateResidencyTicks::UNDEFINED  59944277000                       # Cumulative time (in ticks) in various power states
system.tol2bus.reqLayer0.occupancy          105352500                       # Layer occupancy (ticks)
system.tol2bus.reqLayer0.utilization              0.2                       # Layer utilization (%)
system.tol2bus.respLayer0.occupancy            916500                       # Layer occupancy (ticks)
system.tol2bus.respLayer0.utilization             0.0                       # Layer utilization (%)
system.tol2bus.respLayer1.occupancy          82576497                       # Layer occupancy (ticks)
system.tol2bus.respLayer1.utilization             0.1                       # Layer utilization (%)
system.voltage_domain.voltage                       1                       # Voltage in Volts

---------- End Simulation Statistics   ----------
