
---------- Begin Simulation Statistics ----------
final_tick                                64294406500                       # Number of ticks from beginning of simulation (restored from checkpoints and never reset)
host_inst_rate                                  75633                       # Simulator instruction rate (inst/s)
host_mem_usage                                 676640                       # Number of bytes of host memory used
host_op_rate                                    76275                       # Simulator op (including micro ops) rate (op/s)
host_seconds                                  1322.18                       # Real time elapsed on the host
host_tick_rate                               48627503                       # Simulator tick rate (ticks/s)
sim_freq                                 1000000000000                       # Frequency of simulated ticks
sim_insts                                   100000001                       # Number of instructions simulated
sim_ops                                     100849488                       # Number of ops (including micro ops) simulated
sim_seconds                                  0.064294                       # Number of seconds simulated
sim_ticks                                 64294406500                       # Number of ticks simulated
system.cpu.committedInsts                   100000001                       # Number of instructions committed
system.cpu.committedOps                     100849488                       # Number of ops (including micro ops) committed
system.cpu.cpi                               1.285888                       # CPI: cycles per instruction
system.cpu.discardedOps                        928541                       # Number of ops (including micro ops) which were discarded before commit
system.cpu.idleCycles                         4644456                       # Total number of cycles that the object has spent stopped
system.cpu.ipc                               0.777673                       # IPC: instructions per cycle
system.cpu.numCycles                        128588813                       # number of cpu cycles simulated
system.cpu.numFetchSuspends                         0                       # Number of times Execute suspended instruction fetching
system.cpu.numWorkItemsCompleted                    0                       # number of work items this cpu completed
system.cpu.numWorkItemsStarted                      0                       # number of work items this cpu started
system.cpu.op_class_0::No_OpClass                   0      0.00%      0.00% # Class of committed instruction
system.cpu.op_class_0::IntAlu                48066702     47.66%     47.66% # Class of committed instruction
system.cpu.op_class_0::IntMult                 194948      0.19%     47.86% # Class of committed instruction
system.cpu.op_class_0::IntDiv                  120929      0.12%     47.98% # Class of committed instruction
system.cpu.op_class_0::FloatAdd                     0      0.00%     47.98% # Class of committed instruction
system.cpu.op_class_0::FloatCmp                     0      0.00%     47.98% # Class of committed instruction
system.cpu.op_class_0::FloatCvt                     0      0.00%     47.98% # Class of committed instruction
system.cpu.op_class_0::FloatMult                    0      0.00%     47.98% # Class of committed instruction
system.cpu.op_class_0::FloatMultAcc                 0      0.00%     47.98% # Class of committed instruction
system.cpu.op_class_0::FloatDiv                     0      0.00%     47.98% # Class of committed instruction
system.cpu.op_class_0::FloatMisc                    0      0.00%     47.98% # Class of committed instruction
system.cpu.op_class_0::FloatSqrt                    0      0.00%     47.98% # Class of committed instruction
system.cpu.op_class_0::SimdAdd                      0      0.00%     47.98% # Class of committed instruction
system.cpu.op_class_0::SimdAddAcc                   0      0.00%     47.98% # Class of committed instruction
system.cpu.op_class_0::SimdAlu                      0      0.00%     47.98% # Class of committed instruction
system.cpu.op_class_0::SimdCmp                      0      0.00%     47.98% # Class of committed instruction
system.cpu.op_class_0::SimdCvt                      0      0.00%     47.98% # Class of committed instruction
system.cpu.op_class_0::SimdMisc                     0      0.00%     47.98% # Class of committed instruction
system.cpu.op_class_0::SimdMult                     0      0.00%     47.98% # Class of committed instruction
system.cpu.op_class_0::SimdMultAcc                  0      0.00%     47.98% # Class of committed instruction
system.cpu.op_class_0::SimdShift                    0      0.00%     47.98% # Class of committed instruction
system.cpu.op_class_0::SimdShiftAcc                 0      0.00%     47.98% # Class of committed instruction
system.cpu.op_class_0::SimdDiv                      0      0.00%     47.98% # Class of committed instruction
system.cpu.op_class_0::SimdSqrt                     0      0.00%     47.98% # Class of committed instruction
system.cpu.op_class_0::SimdFloatAdd            329025      0.33%     48.30% # Class of committed instruction
system.cpu.op_class_0::SimdFloatAlu                 0      0.00%     48.30% # Class of committed instruction
system.cpu.op_class_0::SimdFloatCmp            312189      0.31%     48.61% # Class of committed instruction
system.cpu.op_class_0::SimdFloatCvt            190940      0.19%     48.80% # Class of committed instruction
system.cpu.op_class_0::SimdFloatDiv             63386      0.06%     48.86% # Class of committed instruction
system.cpu.op_class_0::SimdFloatMisc           554902      0.55%     49.41% # Class of committed instruction
system.cpu.op_class_0::SimdFloatMult            41940      0.04%     49.45% # Class of committed instruction
system.cpu.op_class_0::SimdFloatMultAcc         10949      0.01%     49.47% # Class of committed instruction
system.cpu.op_class_0::SimdFloatSqrt                0      0.00%     49.47% # Class of committed instruction
system.cpu.op_class_0::SimdReduceAdd                0      0.00%     49.47% # Class of committed instruction
system.cpu.op_class_0::SimdReduceAlu                0      0.00%     49.47% # Class of committed instruction
system.cpu.op_class_0::SimdReduceCmp                0      0.00%     49.47% # Class of committed instruction
system.cpu.op_class_0::SimdFloatReduceAdd            0      0.00%     49.47% # Class of committed instruction
system.cpu.op_class_0::SimdFloatReduceCmp            0      0.00%     49.47% # Class of committed instruction
system.cpu.op_class_0::SimdAes                      0      0.00%     49.47% # Class of committed instruction
system.cpu.op_class_0::SimdAesMix                   0      0.00%     49.47% # Class of committed instruction
system.cpu.op_class_0::SimdSha1Hash                 0      0.00%     49.47% # Class of committed instruction
system.cpu.op_class_0::SimdSha1Hash2                0      0.00%     49.47% # Class of committed instruction
system.cpu.op_class_0::SimdSha256Hash               0      0.00%     49.47% # Class of committed instruction
system.cpu.op_class_0::SimdSha256Hash2              0      0.00%     49.47% # Class of committed instruction
system.cpu.op_class_0::SimdShaSigma2                0      0.00%     49.47% # Class of committed instruction
system.cpu.op_class_0::SimdShaSigma3                0      0.00%     49.47% # Class of committed instruction
system.cpu.op_class_0::SimdPredAlu                  0      0.00%     49.47% # Class of committed instruction
system.cpu.op_class_0::MemRead               43775341     43.41%     92.87% # Class of committed instruction
system.cpu.op_class_0::MemWrite               7188237      7.13%    100.00% # Class of committed instruction
system.cpu.op_class_0::FloatMemRead                 0      0.00%    100.00% # Class of committed instruction
system.cpu.op_class_0::FloatMemWrite                0      0.00%    100.00% # Class of committed instruction
system.cpu.op_class_0::IprAccess                    0      0.00%    100.00% # Class of committed instruction
system.cpu.op_class_0::InstPrefetch                 0      0.00%    100.00% # Class of committed instruction
system.cpu.op_class_0::total                100849488                       # Class of committed instruction
system.cpu.tickCycles                       123944357                       # Number of cycles that the object actually ticked
system.cpu.workload.numSyscalls                    32                       # Number of system calls
system.membus.snoop_filter.hit_multi_requests            0                       # Number of requests hitting in the snoop filter with multiple (>1) holders of the requested data.
system.membus.snoop_filter.hit_multi_snoops            0                       # Number of snoops hitting in the snoop filter with multiple (>1) holders of the requested data.
system.membus.snoop_filter.hit_single_requests            0                       # Number of requests hitting in the snoop filter with a single holder of the requested data.
system.membus.snoop_filter.hit_single_snoops            0                       # Number of snoops hitting in the snoop filter with a single holder of the requested data.
system.membus.snoop_filter.tot_requests         11339                       # Total number of requests made to the snoop filter.
system.membus.snoop_filter.tot_snoops               0                       # Total number of snoops made to the snoop filter.
system.tol2bus.snoop_filter.hit_multi_requests          388                       # Number of requests hitting in the snoop filter with multiple (>1) holders of the requested data.
system.tol2bus.snoop_filter.hit_multi_snoops            0                       # Number of snoops hitting in the snoop filter with multiple (>1) holders of the requested data.
system.tol2bus.snoop_filter.hit_single_requests       145837                       # Number of requests hitting in the snoop filter with a single holder of the requested data.
system.tol2bus.snoop_filter.hit_single_snoops            0                       # Number of snoops hitting in the snoop filter with a single holder of the requested data.
system.tol2bus.snoop_filter.tot_requests       294728                       # Total number of requests made to the snoop filter.
system.tol2bus.snoop_filter.tot_snoops              0                       # Total number of snoops made to the snoop filter.
system.clk_domain.clock                          1000                       # Clock period in ticks
system.cpu.branchPred.lookups                 6629016                       # Number of BP lookups
system.cpu.branchPred.condPredicted           5463852                       # Number of conditional branches predicted
system.cpu.branchPred.condIncorrect            364274                       # Number of conditional branches incorrect
system.cpu.branchPred.BTBLookups              4589335                       # Number of BTB lookups
system.cpu.branchPred.BTBHits                 4583849                       # Number of BTB hits
system.cpu.branchPred.BTBHitPct             99.880462                       # BTB Hit Percentage
system.cpu.branchPred.RASUsed                  190012                       # Number of times the RAS was used to get a target.
system.cpu.branchPred.RASIncorrect                214                       # Number of incorrect RAS predictions.
system.cpu.branchPred.indirectLookups          672756                       # Number of indirect predictor lookups.
system.cpu.branchPred.indirectHits                157                       # Number of indirect target hits.
system.cpu.branchPred.indirectMisses           672599                       # Number of indirect misses.
system.cpu.branchPred.indirectMispredicted          190                       # Number of mispredicted indirect branches.
system.cpu.dcache.demand_hits::.cpu.data     49852286                       # number of demand (read+write) hits
system.cpu.dcache.demand_hits::total         49852286                       # number of demand (read+write) hits
system.cpu.dcache.overall_hits::.cpu.data     49862208                       # number of overall hits
system.cpu.dcache.overall_hits::total        49862208                       # number of overall hits
system.cpu.dcache.demand_misses::.cpu.data       151915                       # number of demand (read+write) misses
system.cpu.dcache.demand_misses::total         151915                       # number of demand (read+write) misses
system.cpu.dcache.overall_misses::.cpu.data       152158                       # number of overall misses
system.cpu.dcache.overall_misses::total        152158                       # number of overall misses
system.cpu.dcache.demand_miss_latency::.cpu.data   2808476000                       # number of demand (read+write) miss cycles
system.cpu.dcache.demand_miss_latency::total   2808476000                       # number of demand (read+write) miss cycles
system.cpu.dcache.overall_miss_latency::.cpu.data   2808476000                       # number of overall miss cycles
system.cpu.dcache.overall_miss_latency::total   2808476000                       # number of overall miss cycles
system.cpu.dcache.demand_accesses::.cpu.data     50004201                       # number of demand (read+write) accesses
system.cpu.dcache.demand_accesses::total     50004201                       # number of demand (read+write) accesses
system.cpu.dcache.overall_accesses::.cpu.data     50014366                       # number of overall (read+write) accesses
system.cpu.dcache.overall_accesses::total     50014366                       # number of overall (read+write) accesses
system.cpu.dcache.demand_miss_rate::.cpu.data     0.003038                       # miss rate for demand accesses
system.cpu.dcache.demand_miss_rate::total     0.003038                       # miss rate for demand accesses
system.cpu.dcache.overall_miss_rate::.cpu.data     0.003042                       # miss rate for overall accesses
system.cpu.dcache.overall_miss_rate::total     0.003042                       # miss rate for overall accesses
system.cpu.dcache.demand_avg_miss_latency::.cpu.data 18487.154001                       # average overall miss latency
system.cpu.dcache.demand_avg_miss_latency::total 18487.154001                       # average overall miss latency
system.cpu.dcache.overall_avg_miss_latency::.cpu.data 18457.629569                       # average overall miss latency
system.cpu.dcache.overall_avg_miss_latency::total 18457.629569                       # average overall miss latency
system.cpu.dcache.blocked_cycles::no_mshrs          662                       # number of cycles access was blocked
system.cpu.dcache.blocked_cycles::no_targets            0                       # number of cycles access was blocked
system.cpu.dcache.blocked::no_mshrs                 6                       # number of cycles access was blocked
system.cpu.dcache.blocked::no_targets               0                       # number of cycles access was blocked
system.cpu.dcache.avg_blocked_cycles::no_mshrs   110.333333                       # average number of cycles each access was blocked
system.cpu.dcache.avg_blocked_cycles::no_targets          nan                       # average number of cycles each access was blocked
system.cpu.dcache.writebacks::.writebacks       138609                       # number of writebacks
system.cpu.dcache.writebacks::total            138609                       # number of writebacks
system.cpu.dcache.demand_mshr_hits::.cpu.data         9260                       # number of demand (read+write) MSHR hits
system.cpu.dcache.demand_mshr_hits::total         9260                       # number of demand (read+write) MSHR hits
system.cpu.dcache.overall_mshr_hits::.cpu.data         9260                       # number of overall MSHR hits
system.cpu.dcache.overall_mshr_hits::total         9260                       # number of overall MSHR hits
system.cpu.dcache.demand_mshr_misses::.cpu.data       142655                       # number of demand (read+write) MSHR misses
system.cpu.dcache.demand_mshr_misses::total       142655                       # number of demand (read+write) MSHR misses
system.cpu.dcache.overall_mshr_misses::.cpu.data       142898                       # number of overall MSHR misses
system.cpu.dcache.overall_mshr_misses::total       142898                       # number of overall MSHR misses
system.cpu.dcache.demand_mshr_miss_latency::.cpu.data   2264768000                       # number of demand (read+write) MSHR miss cycles
system.cpu.dcache.demand_mshr_miss_latency::total   2264768000                       # number of demand (read+write) MSHR miss cycles
system.cpu.dcache.overall_mshr_miss_latency::.cpu.data   2275272000                       # number of overall MSHR miss cycles
system.cpu.dcache.overall_mshr_miss_latency::total   2275272000                       # number of overall MSHR miss cycles
system.cpu.dcache.demand_mshr_miss_rate::.cpu.data     0.002853                       # mshr miss rate for demand accesses
system.cpu.dcache.demand_mshr_miss_rate::total     0.002853                       # mshr miss rate for demand accesses
system.cpu.dcache.overall_mshr_miss_rate::.cpu.data     0.002857                       # mshr miss rate for overall accesses
system.cpu.dcache.overall_mshr_miss_rate::total     0.002857                       # mshr miss rate for overall accesses
system.cpu.dcache.demand_avg_mshr_miss_latency::.cpu.data 15875.840314                       # average overall mshr miss latency
system.cpu.dcache.demand_avg_mshr_miss_latency::total 15875.840314                       # average overall mshr miss latency
system.cpu.dcache.overall_avg_mshr_miss_latency::.cpu.data 15922.350208                       # average overall mshr miss latency
system.cpu.dcache.overall_avg_mshr_miss_latency::total 15922.350208                       # average overall mshr miss latency
system.cpu.dcache.replacements                 140912                       # number of replacements
system.cpu.dcache.ReadReq_hits::.cpu.data     42852785                       # number of ReadReq hits
system.cpu.dcache.ReadReq_hits::total        42852785                       # number of ReadReq hits
system.cpu.dcache.ReadReq_misses::.cpu.data        24857                       # number of ReadReq misses
system.cpu.dcache.ReadReq_misses::total         24857                       # number of ReadReq misses
system.cpu.dcache.ReadReq_miss_latency::.cpu.data    405467000                       # number of ReadReq miss cycles
system.cpu.dcache.ReadReq_miss_latency::total    405467000                       # number of ReadReq miss cycles
system.cpu.dcache.ReadReq_accesses::.cpu.data     42877642                       # number of ReadReq accesses(hits+misses)
system.cpu.dcache.ReadReq_accesses::total     42877642                       # number of ReadReq accesses(hits+misses)
system.cpu.dcache.ReadReq_miss_rate::.cpu.data     0.000580                       # miss rate for ReadReq accesses
system.cpu.dcache.ReadReq_miss_rate::total     0.000580                       # miss rate for ReadReq accesses
system.cpu.dcache.ReadReq_avg_miss_latency::.cpu.data 16311.984552                       # average ReadReq miss latency
system.cpu.dcache.ReadReq_avg_miss_latency::total 16311.984552                       # average ReadReq miss latency
system.cpu.dcache.ReadReq_mshr_hits::.cpu.data           37                       # number of ReadReq MSHR hits
system.cpu.dcache.ReadReq_mshr_hits::total           37                       # number of ReadReq MSHR hits
system.cpu.dcache.ReadReq_mshr_misses::.cpu.data        24820                       # number of ReadReq MSHR misses
system.cpu.dcache.ReadReq_mshr_misses::total        24820                       # number of ReadReq MSHR misses
system.cpu.dcache.ReadReq_mshr_miss_latency::.cpu.data    379024000                       # number of ReadReq MSHR miss cycles
system.cpu.dcache.ReadReq_mshr_miss_latency::total    379024000                       # number of ReadReq MSHR miss cycles
system.cpu.dcache.ReadReq_mshr_miss_rate::.cpu.data     0.000579                       # mshr miss rate for ReadReq accesses
system.cpu.dcache.ReadReq_mshr_miss_rate::total     0.000579                       # mshr miss rate for ReadReq accesses
system.cpu.dcache.ReadReq_avg_mshr_miss_latency::.cpu.data 15270.910556                       # average ReadReq mshr miss latency
system.cpu.dcache.ReadReq_avg_mshr_miss_latency::total 15270.910556                       # average ReadReq mshr miss latency
system.cpu.dcache.WriteReq_hits::.cpu.data      6999501                       # number of WriteReq hits
system.cpu.dcache.WriteReq_hits::total        6999501                       # number of WriteReq hits
system.cpu.dcache.WriteReq_misses::.cpu.data       127058                       # number of WriteReq misses
system.cpu.dcache.WriteReq_misses::total       127058                       # number of WriteReq misses
system.cpu.dcache.WriteReq_miss_latency::.cpu.data   2403009000                       # number of WriteReq miss cycles
system.cpu.dcache.WriteReq_miss_latency::total   2403009000                       # number of WriteReq miss cycles
system.cpu.dcache.WriteReq_accesses::.cpu.data      7126559                       # number of WriteReq accesses(hits+misses)
system.cpu.dcache.WriteReq_accesses::total      7126559                       # number of WriteReq accesses(hits+misses)
system.cpu.dcache.WriteReq_miss_rate::.cpu.data     0.017829                       # miss rate for WriteReq accesses
system.cpu.dcache.WriteReq_miss_rate::total     0.017829                       # miss rate for WriteReq accesses
system.cpu.dcache.WriteReq_avg_miss_latency::.cpu.data 18912.693416                       # average WriteReq miss latency
system.cpu.dcache.WriteReq_avg_miss_latency::total 18912.693416                       # average WriteReq miss latency
system.cpu.dcache.WriteReq_mshr_hits::.cpu.data         9223                       # number of WriteReq MSHR hits
system.cpu.dcache.WriteReq_mshr_hits::total         9223                       # number of WriteReq MSHR hits
system.cpu.dcache.WriteReq_mshr_misses::.cpu.data       117835                       # number of WriteReq MSHR misses
system.cpu.dcache.WriteReq_mshr_misses::total       117835                       # number of WriteReq MSHR misses
system.cpu.dcache.WriteReq_mshr_miss_latency::.cpu.data   1885744000                       # number of WriteReq MSHR miss cycles
system.cpu.dcache.WriteReq_mshr_miss_latency::total   1885744000                       # number of WriteReq MSHR miss cycles
system.cpu.dcache.WriteReq_mshr_miss_rate::.cpu.data     0.016535                       # mshr miss rate for WriteReq accesses
system.cpu.dcache.WriteReq_mshr_miss_rate::total     0.016535                       # mshr miss rate for WriteReq accesses
system.cpu.dcache.WriteReq_avg_mshr_miss_latency::.cpu.data 16003.258794                       # average WriteReq mshr miss latency
system.cpu.dcache.WriteReq_avg_mshr_miss_latency::total 16003.258794                       # average WriteReq mshr miss latency
system.cpu.dcache.SoftPFReq_hits::.cpu.data         9922                       # number of SoftPFReq hits
system.cpu.dcache.SoftPFReq_hits::total          9922                       # number of SoftPFReq hits
system.cpu.dcache.SoftPFReq_misses::.cpu.data          243                       # number of SoftPFReq misses
system.cpu.dcache.SoftPFReq_misses::total          243                       # number of SoftPFReq misses
system.cpu.dcache.SoftPFReq_accesses::.cpu.data        10165                       # number of SoftPFReq accesses(hits+misses)
system.cpu.dcache.SoftPFReq_accesses::total        10165                       # number of SoftPFReq accesses(hits+misses)
system.cpu.dcache.SoftPFReq_miss_rate::.cpu.data     0.023906                       # miss rate for SoftPFReq accesses
system.cpu.dcache.SoftPFReq_miss_rate::total     0.023906                       # miss rate for SoftPFReq accesses
system.cpu.dcache.SoftPFReq_mshr_misses::.cpu.data          243                       # number of SoftPFReq MSHR misses
system.cpu.dcache.SoftPFReq_mshr_misses::total          243                       # number of SoftPFReq MSHR misses
system.cpu.dcache.SoftPFReq_mshr_miss_latency::.cpu.data     10504000                       # number of SoftPFReq MSHR miss cycles
system.cpu.dcache.SoftPFReq_mshr_miss_latency::total     10504000                       # number of SoftPFReq MSHR miss cycles
system.cpu.dcache.SoftPFReq_mshr_miss_rate::.cpu.data     0.023906                       # mshr miss rate for SoftPFReq accesses
system.cpu.dcache.SoftPFReq_mshr_miss_rate::total     0.023906                       # mshr miss rate for SoftPFReq accesses
system.cpu.dcache.SoftPFReq_avg_mshr_miss_latency::.cpu.data 43226.337449                       # average SoftPFReq mshr miss latency
system.cpu.dcache.SoftPFReq_avg_mshr_miss_latency::total 43226.337449                       # average SoftPFReq mshr miss latency
system.cpu.dcache.LoadLockedReq_hits::.cpu.data         1111                       # number of LoadLockedReq hits
system.cpu.dcache.LoadLockedReq_hits::total         1111                       # number of LoadLockedReq hits
system.cpu.dcache.LoadLockedReq_misses::.cpu.data           62                       # number of LoadLockedReq misses
system.cpu.dcache.LoadLockedReq_misses::total           62                       # number of LoadLockedReq misses
system.cpu.dcache.LoadLockedReq_miss_latency::.cpu.data       879000                       # number of LoadLockedReq miss cycles
system.cpu.dcache.LoadLockedReq_miss_latency::total       879000                       # number of LoadLockedReq miss cycles
system.cpu.dcache.LoadLockedReq_accesses::.cpu.data         1173                       # number of LoadLockedReq accesses(hits+misses)
system.cpu.dcache.LoadLockedReq_accesses::total         1173                       # number of LoadLockedReq accesses(hits+misses)
system.cpu.dcache.LoadLockedReq_miss_rate::.cpu.data     0.052856                       # miss rate for LoadLockedReq accesses
system.cpu.dcache.LoadLockedReq_miss_rate::total     0.052856                       # miss rate for LoadLockedReq accesses
system.cpu.dcache.LoadLockedReq_avg_miss_latency::.cpu.data 14177.419355                       # average LoadLockedReq miss latency
system.cpu.dcache.LoadLockedReq_avg_miss_latency::total 14177.419355                       # average LoadLockedReq miss latency
system.cpu.dcache.LoadLockedReq_mshr_misses::.cpu.data           62                       # number of LoadLockedReq MSHR misses
system.cpu.dcache.LoadLockedReq_mshr_misses::total           62                       # number of LoadLockedReq MSHR misses
system.cpu.dcache.LoadLockedReq_mshr_miss_latency::.cpu.data       817000                       # number of LoadLockedReq MSHR miss cycles
system.cpu.dcache.LoadLockedReq_mshr_miss_latency::total       817000                       # number of LoadLockedReq MSHR miss cycles
system.cpu.dcache.LoadLockedReq_mshr_miss_rate::.cpu.data     0.052856                       # mshr miss rate for LoadLockedReq accesses
system.cpu.dcache.LoadLockedReq_mshr_miss_rate::total     0.052856                       # mshr miss rate for LoadLockedReq accesses
system.cpu.dcache.LoadLockedReq_avg_mshr_miss_latency::.cpu.data 13177.419355                       # average LoadLockedReq mshr miss latency
system.cpu.dcache.LoadLockedReq_avg_mshr_miss_latency::total 13177.419355                       # average LoadLockedReq mshr miss latency
system.cpu.dcache.StoreCondReq_hits::.cpu.data         1173                       # number of StoreCondReq hits
system.cpu.dcache.StoreCondReq_hits::total         1173                       # number of StoreCondReq hits
system.cpu.dcache.StoreCondReq_accesses::.cpu.data         1173                       # number of StoreCondReq accesses(hits+misses)
system.cpu.dcache.StoreCondReq_accesses::total         1173                       # number of StoreCondReq accesses(hits+misses)
system.cpu.dcache.power_state.pwrStateResidencyTicks::UNDEFINED  64294406500                       # Cumulative time (in ticks) in various power states
system.cpu.dcache.tags.tagsinuse          2024.651759                       # Cycle average of tags in use
system.cpu.dcache.tags.total_refs            50007452                       # Total number of references to valid blocks.
system.cpu.dcache.tags.sampled_refs            142960                       # Sample count of references to valid blocks.
system.cpu.dcache.tags.avg_refs            349.800308                       # Average number of references to valid blocks.
system.cpu.dcache.tags.warmup_cycle            176500                       # Cycle when the warmup percentage was hit.
system.cpu.dcache.tags.occ_blocks::.cpu.data  2024.651759                       # Average occupied blocks per requestor
system.cpu.dcache.tags.occ_percent::.cpu.data     0.988599                       # Average percentage of cache occupancy
system.cpu.dcache.tags.occ_percent::total     0.988599                       # Average percentage of cache occupancy
system.cpu.dcache.tags.occ_task_id_blocks::1024         2048                       # Occupied blocks per task id
system.cpu.dcache.tags.age_task_id_blocks_1024::0           16                       # Occupied blocks per task id
system.cpu.dcache.tags.age_task_id_blocks_1024::1           34                       # Occupied blocks per task id
system.cpu.dcache.tags.age_task_id_blocks_1024::2         1562                       # Occupied blocks per task id
system.cpu.dcache.tags.age_task_id_blocks_1024::3          383                       # Occupied blocks per task id
system.cpu.dcache.tags.age_task_id_blocks_1024::4           53                       # Occupied blocks per task id
system.cpu.dcache.tags.occ_task_id_percent::1024            1                       # Percentage of cache occupancy per task id
system.cpu.dcache.tags.tag_accesses         100176384                       # Number of tag accesses
system.cpu.dcache.tags.data_accesses        100176384                       # Number of data accesses
system.cpu.dcache.tags.power_state.pwrStateResidencyTicks::UNDEFINED  64294406500                       # Cumulative time (in ticks) in various power states
system.cpu.dtb.instHits                             0                       # ITB inst hits
system.cpu.dtb.instMisses                           0                       # ITB inst misses
system.cpu.dtb.readHits                             0                       # DTB read hits
system.cpu.dtb.readMisses                           0                       # DTB read misses
system.cpu.dtb.writeHits                            0                       # DTB write hits
system.cpu.dtb.writeMisses                          0                       # DTB write misses
system.cpu.dtb.inserts                              0                       # Number of times an entry is inserted into the TLB
system.cpu.dtb.flushTlb                             0                       # Number of times complete TLB was flushed
system.cpu.dtb.flushTlbMva                          0                       # Number of times TLB was flushed by MVA
system.cpu.dtb.flushTlbMvaAsid                      0                       # Number of times TLB was flushed by MVA & ASID
system.cpu.dtb.flushTlbAsid                         0                       # Number of times TLB was flushed by ASID
system.cpu.dtb.flushedEntries                       0                       # Number of entries that have been flushed from TLB
system.cpu.dtb.alignFaults                          0                       # Number of TLB faults due to alignment restrictions
system.cpu.dtb.prefetchFaults                       0                       # Number of TLB faults due to prefetch
system.cpu.dtb.domainFaults                         0                       # Number of TLB faults due to domain restrictions
system.cpu.dtb.permsFaults                          0                       # Number of TLB faults due to permissions restrictions
system.cpu.dtb.readAccesses                         0                       # DTB read accesses
system.cpu.dtb.writeAccesses                        0                       # DTB write accesses
system.cpu.dtb.instAccesses                         0                       # ITB inst accesses
system.cpu.dtb.hits                                 0                       # Total TLB (inst and data) hits
system.cpu.dtb.misses                               0                       # Total TLB (inst and data) misses
system.cpu.dtb.accesses                             0                       # Total TLB (inst and data) accesses
system.cpu.dtb.stage2_mmu.stage2_tlb.instHits            0                       # ITB inst hits
system.cpu.dtb.stage2_mmu.stage2_tlb.instMisses            0                       # ITB inst misses
system.cpu.dtb.stage2_mmu.stage2_tlb.readHits            0                       # DTB read hits
system.cpu.dtb.stage2_mmu.stage2_tlb.readMisses            0                       # DTB read misses
system.cpu.dtb.stage2_mmu.stage2_tlb.writeHits            0                       # DTB write hits
system.cpu.dtb.stage2_mmu.stage2_tlb.writeMisses            0                       # DTB write misses
system.cpu.dtb.stage2_mmu.stage2_tlb.inserts            0                       # Number of times an entry is inserted into the TLB
system.cpu.dtb.stage2_mmu.stage2_tlb.flushTlb            0                       # Number of times complete TLB was flushed
system.cpu.dtb.stage2_mmu.stage2_tlb.flushTlbMva            0                       # Number of times TLB was flushed by MVA
system.cpu.dtb.stage2_mmu.stage2_tlb.flushTlbMvaAsid            0                       # Number of times TLB was flushed by MVA & ASID
system.cpu.dtb.stage2_mmu.stage2_tlb.flushTlbAsid            0                       # Number of times TLB was flushed by ASID
system.cpu.dtb.stage2_mmu.stage2_tlb.flushedEntries            0                       # Number of entries that have been flushed from TLB
system.cpu.dtb.stage2_mmu.stage2_tlb.alignFaults            0                       # Number of TLB faults due to alignment restrictions
system.cpu.dtb.stage2_mmu.stage2_tlb.prefetchFaults            0                       # Number of TLB faults due to prefetch
system.cpu.dtb.stage2_mmu.stage2_tlb.domainFaults            0                       # Number of TLB faults due to domain restrictions
system.cpu.dtb.stage2_mmu.stage2_tlb.permsFaults            0                       # Number of TLB faults due to permissions restrictions
system.cpu.dtb.stage2_mmu.stage2_tlb.readAccesses            0                       # DTB read accesses
system.cpu.dtb.stage2_mmu.stage2_tlb.writeAccesses            0                       # DTB write accesses
system.cpu.dtb.stage2_mmu.stage2_tlb.instAccesses            0                       # ITB inst accesses
system.cpu.dtb.stage2_mmu.stage2_tlb.hits            0                       # Total TLB (inst and data) hits
system.cpu.dtb.stage2_mmu.stage2_tlb.misses            0                       # Total TLB (inst and data) misses
system.cpu.dtb.stage2_mmu.stage2_tlb.accesses            0                       # Total TLB (inst and data) accesses
system.cpu.dtb.stage2_mmu.stage2_tlb.walker.walks            0                       # Table walker walks requested
system.cpu.dtb.stage2_mmu.stage2_tlb.walker.requestOrigin_Requested::Data            0                       # Table walker requests started/completed, data/inst
system.cpu.dtb.stage2_mmu.stage2_tlb.walker.requestOrigin_Requested::Inst            0                       # Table walker requests started/completed, data/inst
system.cpu.dtb.stage2_mmu.stage2_tlb.walker.requestOrigin_Requested::total            0                       # Table walker requests started/completed, data/inst
system.cpu.dtb.stage2_mmu.stage2_tlb.walker.requestOrigin_Completed::Data            0                       # Table walker requests started/completed, data/inst
system.cpu.dtb.stage2_mmu.stage2_tlb.walker.requestOrigin_Completed::Inst            0                       # Table walker requests started/completed, data/inst
system.cpu.dtb.stage2_mmu.stage2_tlb.walker.requestOrigin_Completed::total            0                       # Table walker requests started/completed, data/inst
system.cpu.dtb.stage2_mmu.stage2_tlb.walker.requestOrigin::total            0                       # Table walker requests started/completed, data/inst
system.cpu.dtb.stage2_mmu.stage2_tlb.walker.power_state.pwrStateResidencyTicks::UNDEFINED  64294406500                       # Cumulative time (in ticks) in various power states
system.cpu.dtb.walker.walks                         0                       # Table walker walks requested
system.cpu.dtb.walker.requestOrigin_Requested::Data            0                       # Table walker requests started/completed, data/inst
system.cpu.dtb.walker.requestOrigin_Requested::Inst            0                       # Table walker requests started/completed, data/inst
system.cpu.dtb.walker.requestOrigin_Requested::total            0                       # Table walker requests started/completed, data/inst
system.cpu.dtb.walker.requestOrigin_Completed::Data            0                       # Table walker requests started/completed, data/inst
system.cpu.dtb.walker.requestOrigin_Completed::Inst            0                       # Table walker requests started/completed, data/inst
system.cpu.dtb.walker.requestOrigin_Completed::total            0                       # Table walker requests started/completed, data/inst
system.cpu.dtb.walker.requestOrigin::total            0                       # Table walker requests started/completed, data/inst
system.cpu.dtb.walker.power_state.pwrStateResidencyTicks::UNDEFINED  64294406500                       # Cumulative time (in ticks) in various power states
system.cpu.fetch2.intInstructions            45611599                       # Number of integer instructions successfully decoded
system.cpu.fetch2.fpInstructions                    0                       # Number of floating point instructions successfully decoded
system.cpu.fetch2.vecInstructions                   0                       # Number of SIMD instructions successfully decoded
system.cpu.fetch2.loadInstructions           46610962                       # Number of memory load instructions successfully decoded
system.cpu.fetch2.storeInstructions           7314937                       # Number of memory store instructions successfully decoded
system.cpu.fetch2.amoInstructions                   0                       # Number of memory atomic instructions successfully decoded
system.cpu.icache.demand_hits::.cpu.inst     25451185                       # number of demand (read+write) hits
system.cpu.icache.demand_hits::total         25451185                       # number of demand (read+write) hits
system.cpu.icache.overall_hits::.cpu.inst     25451185                       # number of overall hits
system.cpu.icache.overall_hits::total        25451185                       # number of overall hits
system.cpu.icache.demand_misses::.cpu.inst         5938                       # number of demand (read+write) misses
system.cpu.icache.demand_misses::total           5938                       # number of demand (read+write) misses
system.cpu.icache.overall_misses::.cpu.inst         5938                       # number of overall misses
system.cpu.icache.overall_misses::total          5938                       # number of overall misses
system.cpu.icache.demand_miss_latency::.cpu.inst    257684500                       # number of demand (read+write) miss cycles
system.cpu.icache.demand_miss_latency::total    257684500                       # number of demand (read+write) miss cycles
system.cpu.icache.overall_miss_latency::.cpu.inst    257684500                       # number of overall miss cycles
system.cpu.icache.overall_miss_latency::total    257684500                       # number of overall miss cycles
system.cpu.icache.demand_accesses::.cpu.inst     25457123                       # number of demand (read+write) accesses
system.cpu.icache.demand_accesses::total     25457123                       # number of demand (read+write) accesses
system.cpu.icache.overall_accesses::.cpu.inst     25457123                       # number of overall (read+write) accesses
system.cpu.icache.overall_accesses::total     25457123                       # number of overall (read+write) accesses
system.cpu.icache.demand_miss_rate::.cpu.inst     0.000233                       # miss rate for demand accesses
system.cpu.icache.demand_miss_rate::total     0.000233                       # miss rate for demand accesses
system.cpu.icache.overall_miss_rate::.cpu.inst     0.000233                       # miss rate for overall accesses
system.cpu.icache.overall_miss_rate::total     0.000233                       # miss rate for overall accesses
system.cpu.icache.demand_avg_miss_latency::.cpu.inst 43395.840350                       # average overall miss latency
system.cpu.icache.demand_avg_miss_latency::total 43395.840350                       # average overall miss latency
system.cpu.icache.overall_avg_miss_latency::.cpu.inst 43395.840350                       # average overall miss latency
system.cpu.icache.overall_avg_miss_latency::total 43395.840350                       # average overall miss latency
system.cpu.icache.blocked_cycles::no_mshrs            0                       # number of cycles access was blocked
system.cpu.icache.blocked_cycles::no_targets            0                       # number of cycles access was blocked
system.cpu.icache.blocked::no_mshrs                 0                       # number of cycles access was blocked
system.cpu.icache.blocked::no_targets               0                       # number of cycles access was blocked
system.cpu.icache.avg_blocked_cycles::no_mshrs          nan                       # average number of cycles each access was blocked
system.cpu.icache.avg_blocked_cycles::no_targets          nan                       # average number of cycles each access was blocked
system.cpu.icache.writebacks::.writebacks         4918                       # number of writebacks
system.cpu.icache.writebacks::total              4918                       # number of writebacks
system.cpu.icache.demand_mshr_misses::.cpu.inst         5938                       # number of demand (read+write) MSHR misses
system.cpu.icache.demand_mshr_misses::total         5938                       # number of demand (read+write) MSHR misses
system.cpu.icache.overall_mshr_misses::.cpu.inst         5938                       # number of overall MSHR misses
system.cpu.icache.overall_mshr_misses::total         5938                       # number of overall MSHR misses
system.cpu.icache.demand_mshr_miss_latency::.cpu.inst    251746500                       # number of demand (read+write) MSHR miss cycles
system.cpu.icache.demand_mshr_miss_latency::total    251746500                       # number of demand (read+write) MSHR miss cycles
system.cpu.icache.overall_mshr_miss_latency::.cpu.inst    251746500                       # number of overall MSHR miss cycles
system.cpu.icache.overall_mshr_miss_latency::total    251746500                       # number of overall MSHR miss cycles
system.cpu.icache.demand_mshr_miss_rate::.cpu.inst     0.000233                       # mshr miss rate for demand accesses
system.cpu.icache.demand_mshr_miss_rate::total     0.000233                       # mshr miss rate for demand accesses
system.cpu.icache.overall_mshr_miss_rate::.cpu.inst     0.000233                       # mshr miss rate for overall accesses
system.cpu.icache.overall_mshr_miss_rate::total     0.000233                       # mshr miss rate for overall accesses
system.cpu.icache.demand_avg_mshr_miss_latency::.cpu.inst 42395.840350                       # average overall mshr miss latency
system.cpu.icache.demand_avg_mshr_miss_latency::total 42395.840350                       # average overall mshr miss latency
system.cpu.icache.overall_avg_mshr_miss_latency::.cpu.inst 42395.840350                       # average overall mshr miss latency
system.cpu.icache.overall_avg_mshr_miss_latency::total 42395.840350                       # average overall mshr miss latency
system.cpu.icache.replacements                   4918                       # number of replacements
system.cpu.icache.ReadReq_hits::.cpu.inst     25451185                       # number of ReadReq hits
system.cpu.icache.ReadReq_hits::total        25451185                       # number of ReadReq hits
system.cpu.icache.ReadReq_misses::.cpu.inst         5938                       # number of ReadReq misses
system.cpu.icache.ReadReq_misses::total          5938                       # number of ReadReq misses
system.cpu.icache.ReadReq_miss_latency::.cpu.inst    257684500                       # number of ReadReq miss cycles
system.cpu.icache.ReadReq_miss_latency::total    257684500                       # number of ReadReq miss cycles
system.cpu.icache.ReadReq_accesses::.cpu.inst     25457123                       # number of ReadReq accesses(hits+misses)
system.cpu.icache.ReadReq_accesses::total     25457123                       # number of ReadReq accesses(hits+misses)
system.cpu.icache.ReadReq_miss_rate::.cpu.inst     0.000233                       # miss rate for ReadReq accesses
system.cpu.icache.ReadReq_miss_rate::total     0.000233                       # miss rate for ReadReq accesses
system.cpu.icache.ReadReq_avg_miss_latency::.cpu.inst 43395.840350                       # average ReadReq miss latency
system.cpu.icache.ReadReq_avg_miss_latency::total 43395.840350                       # average ReadReq miss latency
system.cpu.icache.ReadReq_mshr_misses::.cpu.inst         5938                       # number of ReadReq MSHR misses
system.cpu.icache.ReadReq_mshr_misses::total         5938                       # number of ReadReq MSHR misses
system.cpu.icache.ReadReq_mshr_miss_latency::.cpu.inst    251746500                       # number of ReadReq MSHR miss cycles
system.cpu.icache.ReadReq_mshr_miss_latency::total    251746500                       # number of ReadReq MSHR miss cycles
system.cpu.icache.ReadReq_mshr_miss_rate::.cpu.inst     0.000233                       # mshr miss rate for ReadReq accesses
system.cpu.icache.ReadReq_mshr_miss_rate::total     0.000233                       # mshr miss rate for ReadReq accesses
system.cpu.icache.ReadReq_avg_mshr_miss_latency::.cpu.inst 42395.840350                       # average ReadReq mshr miss latency
system.cpu.icache.ReadReq_avg_mshr_miss_latency::total 42395.840350                       # average ReadReq mshr miss latency
system.cpu.icache.power_state.pwrStateResidencyTicks::UNDEFINED  64294406500                       # Cumulative time (in ticks) in various power states
system.cpu.icache.tags.tagsinuse          1018.820235                       # Cycle average of tags in use
system.cpu.icache.tags.total_refs            25457123                       # Total number of references to valid blocks.
system.cpu.icache.tags.sampled_refs              5938                       # Sample count of references to valid blocks.
system.cpu.icache.tags.avg_refs           4287.154429                       # Average number of references to valid blocks.
system.cpu.icache.tags.warmup_cycle             87500                       # Cycle when the warmup percentage was hit.
system.cpu.icache.tags.occ_blocks::.cpu.inst  1018.820235                       # Average occupied blocks per requestor
system.cpu.icache.tags.occ_percent::.cpu.inst     0.994942                       # Average percentage of cache occupancy
system.cpu.icache.tags.occ_percent::total     0.994942                       # Average percentage of cache occupancy
system.cpu.icache.tags.occ_task_id_blocks::1024         1020                       # Occupied blocks per task id
system.cpu.icache.tags.age_task_id_blocks_1024::2           12                       # Occupied blocks per task id
system.cpu.icache.tags.age_task_id_blocks_1024::4         1008                       # Occupied blocks per task id
system.cpu.icache.tags.occ_task_id_percent::1024     0.996094                       # Percentage of cache occupancy per task id
system.cpu.icache.tags.tag_accesses          50920184                       # Number of tag accesses
system.cpu.icache.tags.data_accesses         50920184                       # Number of data accesses
system.cpu.icache.tags.power_state.pwrStateResidencyTicks::UNDEFINED  64294406500                       # Cumulative time (in ticks) in various power states
system.cpu.itb.instHits                             0                       # ITB inst hits
system.cpu.itb.instMisses                           0                       # ITB inst misses
system.cpu.itb.readHits                             0                       # DTB read hits
system.cpu.itb.readMisses                           0                       # DTB read misses
system.cpu.itb.writeHits                            0                       # DTB write hits
system.cpu.itb.writeMisses                          0                       # DTB write misses
system.cpu.itb.inserts                              0                       # Number of times an entry is inserted into the TLB
system.cpu.itb.flushTlb                             0                       # Number of times complete TLB was flushed
system.cpu.itb.flushTlbMva                          0                       # Number of times TLB was flushed by MVA
system.cpu.itb.flushTlbMvaAsid                      0                       # Number of times TLB was flushed by MVA & ASID
system.cpu.itb.flushTlbAsid                         0                       # Number of times TLB was flushed by ASID
system.cpu.itb.flushedEntries                       0                       # Number of entries that have been flushed from TLB
system.cpu.itb.alignFaults                          0                       # Number of TLB faults due to alignment restrictions
system.cpu.itb.prefetchFaults                       0                       # Number of TLB faults due to prefetch
system.cpu.itb.domainFaults                         0                       # Number of TLB faults due to domain restrictions
system.cpu.itb.permsFaults                          0                       # Number of TLB faults due to permissions restrictions
system.cpu.itb.readAccesses                         0                       # DTB read accesses
system.cpu.itb.writeAccesses                        0                       # DTB write accesses
system.cpu.itb.instAccesses                         0                       # ITB inst accesses
system.cpu.itb.hits                                 0                       # Total TLB (inst and data) hits
system.cpu.itb.misses                               0                       # Total TLB (inst and data) misses
system.cpu.itb.accesses                             0                       # Total TLB (inst and data) accesses
system.cpu.itb.stage2_mmu.stage2_tlb.instHits            0                       # ITB inst hits
system.cpu.itb.stage2_mmu.stage2_tlb.instMisses            0                       # ITB inst misses
system.cpu.itb.stage2_mmu.stage2_tlb.readHits            0                       # DTB read hits
system.cpu.itb.stage2_mmu.stage2_tlb.readMisses            0                       # DTB read misses
system.cpu.itb.stage2_mmu.stage2_tlb.writeHits            0                       # DTB write hits
system.cpu.itb.stage2_mmu.stage2_tlb.writeMisses            0                       # DTB write misses
system.cpu.itb.stage2_mmu.stage2_tlb.inserts            0                       # Number of times an entry is inserted into the TLB
system.cpu.itb.stage2_mmu.stage2_tlb.flushTlb            0                       # Number of times complete TLB was flushed
system.cpu.itb.stage2_mmu.stage2_tlb.flushTlbMva            0                       # Number of times TLB was flushed by MVA
system.cpu.itb.stage2_mmu.stage2_tlb.flushTlbMvaAsid            0                       # Number of times TLB was flushed by MVA & ASID
system.cpu.itb.stage2_mmu.stage2_tlb.flushTlbAsid            0                       # Number of times TLB was flushed by ASID
system.cpu.itb.stage2_mmu.stage2_tlb.flushedEntries            0                       # Number of entries that have been flushed from TLB
system.cpu.itb.stage2_mmu.stage2_tlb.alignFaults            0                       # Number of TLB faults due to alignment restrictions
system.cpu.itb.stage2_mmu.stage2_tlb.prefetchFaults            0                       # Number of TLB faults due to prefetch
system.cpu.itb.stage2_mmu.stage2_tlb.domainFaults            0                       # Number of TLB faults due to domain restrictions
system.cpu.itb.stage2_mmu.stage2_tlb.permsFaults            0                       # Number of TLB faults due to permissions restrictions
system.cpu.itb.stage2_mmu.stage2_tlb.readAccesses            0                       # DTB read accesses
system.cpu.itb.stage2_mmu.stage2_tlb.writeAccesses            0                       # DTB write accesses
system.cpu.itb.stage2_mmu.stage2_tlb.instAccesses            0                       # ITB inst accesses
system.cpu.itb.stage2_mmu.stage2_tlb.hits            0                       # Total TLB (inst and data) hits
system.cpu.itb.stage2_mmu.stage2_tlb.misses            0                       # Total TLB (inst and data) misses
system.cpu.itb.stage2_mmu.stage2_tlb.accesses            0                       # Total TLB (inst and data) accesses
system.cpu.itb.stage2_mmu.stage2_tlb.walker.walks            0                       # Table walker walks requested
system.cpu.itb.stage2_mmu.stage2_tlb.walker.requestOrigin_Requested::Data            0                       # Table walker requests started/completed, data/inst
system.cpu.itb.stage2_mmu.stage2_tlb.walker.requestOrigin_Requested::Inst            0                       # Table walker requests started/completed, data/inst
system.cpu.itb.stage2_mmu.stage2_tlb.walker.requestOrigin_Requested::total            0                       # Table walker requests started/completed, data/inst
system.cpu.itb.stage2_mmu.stage2_tlb.walker.requestOrigin_Completed::Data            0                       # Table walker requests started/completed, data/inst
system.cpu.itb.stage2_mmu.stage2_tlb.walker.requestOrigin_Completed::Inst            0                       # Table walker requests started/completed, data/inst
system.cpu.itb.stage2_mmu.stage2_tlb.walker.requestOrigin_Completed::total            0                       # Table walker requests started/completed, data/inst
system.cpu.itb.stage2_mmu.stage2_tlb.walker.requestOrigin::total            0                       # Table walker requests started/completed, data/inst
system.cpu.itb.stage2_mmu.stage2_tlb.walker.power_state.pwrStateResidencyTicks::UNDEFINED  64294406500                       # Cumulative time (in ticks) in various power states
system.cpu.itb.walker.walks                         0                       # Table walker walks requested
system.cpu.itb.walker.requestOrigin_Requested::Data            0                       # Table walker requests started/completed, data/inst
system.cpu.itb.walker.requestOrigin_Requested::Inst            0                       # Table walker requests started/completed, data/inst
system.cpu.itb.walker.requestOrigin_Requested::total            0                       # Table walker requests started/completed, data/inst
system.cpu.itb.walker.requestOrigin_Completed::Data            0                       # Table walker requests started/completed, data/inst
system.cpu.itb.walker.requestOrigin_Completed::Inst            0                       # Table walker requests started/completed, data/inst
system.cpu.itb.walker.requestOrigin_Completed::total            0                       # Table walker requests started/completed, data/inst
system.cpu.itb.walker.requestOrigin::total            0                       # Table walker requests started/completed, data/inst
system.cpu.itb.walker.power_state.pwrStateResidencyTicks::UNDEFINED  64294406500                       # Cumulative time (in ticks) in various power states
system.cpu.power_state.pwrStateResidencyTicks::ON  64294406500                       # Cumulative time (in ticks) in various power states
system.cpu.thread_0.numInsts                100000001                       # Number of Instructions committed
system.cpu.thread_0.numOps                  100849488                       # Number of Ops committed
system.cpu.thread_0.numMemRefs                      0                       # Number of Memory References
system.cpu_clk_domain.clock                       500                       # Clock period in ticks
system.cpu_voltage_domain.voltage                   1                       # Voltage in Volts
system.l2.demand_hits::.cpu.inst                 3151                       # number of demand (read+write) hits
system.l2.demand_hits::.cpu.data               134401                       # number of demand (read+write) hits
system.l2.demand_hits::total                   137552                       # number of demand (read+write) hits
system.l2.overall_hits::.cpu.inst                3151                       # number of overall hits
system.l2.overall_hits::.cpu.data              134401                       # number of overall hits
system.l2.overall_hits::total                  137552                       # number of overall hits
system.l2.demand_misses::.cpu.inst               2787                       # number of demand (read+write) misses
system.l2.demand_misses::.cpu.data               8559                       # number of demand (read+write) misses
system.l2.demand_misses::total                  11346                       # number of demand (read+write) misses
system.l2.overall_misses::.cpu.inst              2787                       # number of overall misses
system.l2.overall_misses::.cpu.data              8559                       # number of overall misses
system.l2.overall_misses::total                 11346                       # number of overall misses
system.l2.demand_miss_latency::.cpu.inst    209705500                       # number of demand (read+write) miss cycles
system.l2.demand_miss_latency::.cpu.data    649164500                       # number of demand (read+write) miss cycles
system.l2.demand_miss_latency::total        858870000                       # number of demand (read+write) miss cycles
system.l2.overall_miss_latency::.cpu.inst    209705500                       # number of overall miss cycles
system.l2.overall_miss_latency::.cpu.data    649164500                       # number of overall miss cycles
system.l2.overall_miss_latency::total       858870000                       # number of overall miss cycles
system.l2.demand_accesses::.cpu.inst             5938                       # number of demand (read+write) accesses
system.l2.demand_accesses::.cpu.data           142960                       # number of demand (read+write) accesses
system.l2.demand_accesses::total               148898                       # number of demand (read+write) accesses
system.l2.overall_accesses::.cpu.inst            5938                       # number of overall (read+write) accesses
system.l2.overall_accesses::.cpu.data          142960                       # number of overall (read+write) accesses
system.l2.overall_accesses::total              148898                       # number of overall (read+write) accesses
system.l2.demand_miss_rate::.cpu.inst        0.469350                       # miss rate for demand accesses
system.l2.demand_miss_rate::.cpu.data        0.059870                       # miss rate for demand accesses
system.l2.demand_miss_rate::total            0.076200                       # miss rate for demand accesses
system.l2.overall_miss_rate::.cpu.inst       0.469350                       # miss rate for overall accesses
system.l2.overall_miss_rate::.cpu.data       0.059870                       # miss rate for overall accesses
system.l2.overall_miss_rate::total           0.076200                       # miss rate for overall accesses
system.l2.demand_avg_miss_latency::.cpu.inst 75244.169358                       # average overall miss latency
system.l2.demand_avg_miss_latency::.cpu.data 75845.834794                       # average overall miss latency
system.l2.demand_avg_miss_latency::total 75698.043363                       # average overall miss latency
system.l2.overall_avg_miss_latency::.cpu.inst 75244.169358                       # average overall miss latency
system.l2.overall_avg_miss_latency::.cpu.data 75845.834794                       # average overall miss latency
system.l2.overall_avg_miss_latency::total 75698.043363                       # average overall miss latency
system.l2.blocked_cycles::no_mshrs                  0                       # number of cycles access was blocked
system.l2.blocked_cycles::no_targets                0                       # number of cycles access was blocked
system.l2.blocked::no_mshrs                         0                       # number of cycles access was blocked
system.l2.blocked::no_targets                       0                       # number of cycles access was blocked
system.l2.avg_blocked_cycles::no_mshrs            nan                       # average number of cycles each access was blocked
system.l2.avg_blocked_cycles::no_targets          nan                       # average number of cycles each access was blocked
system.l2.demand_mshr_hits::.cpu.inst               1                       # number of demand (read+write) MSHR hits
system.l2.demand_mshr_hits::.cpu.data               6                       # number of demand (read+write) MSHR hits
system.l2.demand_mshr_hits::total                   7                       # number of demand (read+write) MSHR hits
system.l2.overall_mshr_hits::.cpu.inst              1                       # number of overall MSHR hits
system.l2.overall_mshr_hits::.cpu.data              6                       # number of overall MSHR hits
system.l2.overall_mshr_hits::total                  7                       # number of overall MSHR hits
system.l2.demand_mshr_misses::.cpu.inst          2786                       # number of demand (read+write) MSHR misses
system.l2.demand_mshr_misses::.cpu.data          8553                       # number of demand (read+write) MSHR misses
system.l2.demand_mshr_misses::total             11339                       # number of demand (read+write) MSHR misses
system.l2.overall_mshr_misses::.cpu.inst         2786                       # number of overall MSHR misses
system.l2.overall_mshr_misses::.cpu.data         8553                       # number of overall MSHR misses
system.l2.overall_mshr_misses::total            11339                       # number of overall MSHR misses
system.l2.demand_mshr_miss_latency::.cpu.inst    181782000                       # number of demand (read+write) MSHR miss cycles
system.l2.demand_mshr_miss_latency::.cpu.data    563243500                       # number of demand (read+write) MSHR miss cycles
system.l2.demand_mshr_miss_latency::total    745025500                       # number of demand (read+write) MSHR miss cycles
system.l2.overall_mshr_miss_latency::.cpu.inst    181782000                       # number of overall MSHR miss cycles
system.l2.overall_mshr_miss_latency::.cpu.data    563243500                       # number of overall MSHR miss cycles
system.l2.overall_mshr_miss_latency::total    745025500                       # number of overall MSHR miss cycles
system.l2.demand_mshr_miss_rate::.cpu.inst     0.469182                       # mshr miss rate for demand accesses
system.l2.demand_mshr_miss_rate::.cpu.data     0.059828                       # mshr miss rate for demand accesses
system.l2.demand_mshr_miss_rate::total       0.076153                       # mshr miss rate for demand accesses
system.l2.overall_mshr_miss_rate::.cpu.inst     0.469182                       # mshr miss rate for overall accesses
system.l2.overall_mshr_miss_rate::.cpu.data     0.059828                       # mshr miss rate for overall accesses
system.l2.overall_mshr_miss_rate::total      0.076153                       # mshr miss rate for overall accesses
system.l2.demand_avg_mshr_miss_latency::.cpu.inst 65248.384781                       # average overall mshr miss latency
system.l2.demand_avg_mshr_miss_latency::.cpu.data 65853.326318                       # average overall mshr miss latency
system.l2.demand_avg_mshr_miss_latency::total 65704.691772                       # average overall mshr miss latency
system.l2.overall_avg_mshr_miss_latency::.cpu.inst 65248.384781                       # average overall mshr miss latency
system.l2.overall_avg_mshr_miss_latency::.cpu.data 65853.326318                       # average overall mshr miss latency
system.l2.overall_avg_mshr_miss_latency::total 65704.691772                       # average overall mshr miss latency
system.l2.replacements                              0                       # number of replacements
system.l2.WritebackDirty_hits::.writebacks       138609                       # number of WritebackDirty hits
system.l2.WritebackDirty_hits::total           138609                       # number of WritebackDirty hits
system.l2.WritebackDirty_accesses::.writebacks       138609                       # number of WritebackDirty accesses(hits+misses)
system.l2.WritebackDirty_accesses::total       138609                       # number of WritebackDirty accesses(hits+misses)
system.l2.WritebackClean_hits::.writebacks         4882                       # number of WritebackClean hits
system.l2.WritebackClean_hits::total             4882                       # number of WritebackClean hits
system.l2.WritebackClean_accesses::.writebacks         4882                       # number of WritebackClean accesses(hits+misses)
system.l2.WritebackClean_accesses::total         4882                       # number of WritebackClean accesses(hits+misses)
system.l2.ReadExReq_hits::.cpu.data            110627                       # number of ReadExReq hits
system.l2.ReadExReq_hits::total                110627                       # number of ReadExReq hits
system.l2.ReadExReq_misses::.cpu.data            7255                       # number of ReadExReq misses
system.l2.ReadExReq_misses::total                7255                       # number of ReadExReq misses
system.l2.ReadExReq_miss_latency::.cpu.data    547294000                       # number of ReadExReq miss cycles
system.l2.ReadExReq_miss_latency::total     547294000                       # number of ReadExReq miss cycles
system.l2.ReadExReq_accesses::.cpu.data        117882                       # number of ReadExReq accesses(hits+misses)
system.l2.ReadExReq_accesses::total            117882                       # number of ReadExReq accesses(hits+misses)
system.l2.ReadExReq_miss_rate::.cpu.data     0.061545                       # miss rate for ReadExReq accesses
system.l2.ReadExReq_miss_rate::total         0.061545                       # miss rate for ReadExReq accesses
system.l2.ReadExReq_avg_miss_latency::.cpu.data 75436.802205                       # average ReadExReq miss latency
system.l2.ReadExReq_avg_miss_latency::total 75436.802205                       # average ReadExReq miss latency
system.l2.ReadExReq_mshr_misses::.cpu.data         7255                       # number of ReadExReq MSHR misses
system.l2.ReadExReq_mshr_misses::total           7255                       # number of ReadExReq MSHR misses
system.l2.ReadExReq_mshr_miss_latency::.cpu.data    474744000                       # number of ReadExReq MSHR miss cycles
system.l2.ReadExReq_mshr_miss_latency::total    474744000                       # number of ReadExReq MSHR miss cycles
system.l2.ReadExReq_mshr_miss_rate::.cpu.data     0.061545                       # mshr miss rate for ReadExReq accesses
system.l2.ReadExReq_mshr_miss_rate::total     0.061545                       # mshr miss rate for ReadExReq accesses
system.l2.ReadExReq_avg_mshr_miss_latency::.cpu.data 65436.802205                       # average ReadExReq mshr miss latency
system.l2.ReadExReq_avg_mshr_miss_latency::total 65436.802205                       # average ReadExReq mshr miss latency
system.l2.ReadCleanReq_hits::.cpu.inst           3151                       # number of ReadCleanReq hits
system.l2.ReadCleanReq_hits::total               3151                       # number of ReadCleanReq hits
system.l2.ReadCleanReq_misses::.cpu.inst         2787                       # number of ReadCleanReq misses
system.l2.ReadCleanReq_misses::total             2787                       # number of ReadCleanReq misses
system.l2.ReadCleanReq_miss_latency::.cpu.inst    209705500                       # number of ReadCleanReq miss cycles
system.l2.ReadCleanReq_miss_latency::total    209705500                       # number of ReadCleanReq miss cycles
system.l2.ReadCleanReq_accesses::.cpu.inst         5938                       # number of ReadCleanReq accesses(hits+misses)
system.l2.ReadCleanReq_accesses::total           5938                       # number of ReadCleanReq accesses(hits+misses)
system.l2.ReadCleanReq_miss_rate::.cpu.inst     0.469350                       # miss rate for ReadCleanReq accesses
system.l2.ReadCleanReq_miss_rate::total      0.469350                       # miss rate for ReadCleanReq accesses
system.l2.ReadCleanReq_avg_miss_latency::.cpu.inst 75244.169358                       # average ReadCleanReq miss latency
system.l2.ReadCleanReq_avg_miss_latency::total 75244.169358                       # average ReadCleanReq miss latency
system.l2.ReadCleanReq_mshr_hits::.cpu.inst            1                       # number of ReadCleanReq MSHR hits
system.l2.ReadCleanReq_mshr_hits::total             1                       # number of ReadCleanReq MSHR hits
system.l2.ReadCleanReq_mshr_misses::.cpu.inst         2786                       # number of ReadCleanReq MSHR misses
system.l2.ReadCleanReq_mshr_misses::total         2786                       # number of ReadCleanReq MSHR misses
system.l2.ReadCleanReq_mshr_miss_latency::.cpu.inst    181782000                       # number of ReadCleanReq MSHR miss cycles
system.l2.ReadCleanReq_mshr_miss_latency::total    181782000                       # number of ReadCleanReq MSHR miss cycles
system.l2.ReadCleanReq_mshr_miss_rate::.cpu.inst     0.469182                       # mshr miss rate for ReadCleanReq accesses
system.l2.ReadCleanReq_mshr_miss_rate::total     0.469182                       # mshr miss rate for ReadCleanReq accesses
system.l2.ReadCleanReq_avg_mshr_miss_latency::.cpu.inst 65248.384781                       # average ReadCleanReq mshr miss latency
system.l2.ReadCleanReq_avg_mshr_miss_latency::total 65248.384781                       # average ReadCleanReq mshr miss latency
system.l2.ReadSharedReq_hits::.cpu.data         23774                       # number of ReadSharedReq hits
system.l2.ReadSharedReq_hits::total             23774                       # number of ReadSharedReq hits
system.l2.ReadSharedReq_misses::.cpu.data         1304                       # number of ReadSharedReq misses
system.l2.ReadSharedReq_misses::total            1304                       # number of ReadSharedReq misses
system.l2.ReadSharedReq_miss_latency::.cpu.data    101870500                       # number of ReadSharedReq miss cycles
system.l2.ReadSharedReq_miss_latency::total    101870500                       # number of ReadSharedReq miss cycles
system.l2.ReadSharedReq_accesses::.cpu.data        25078                       # number of ReadSharedReq accesses(hits+misses)
system.l2.ReadSharedReq_accesses::total         25078                       # number of ReadSharedReq accesses(hits+misses)
system.l2.ReadSharedReq_miss_rate::.cpu.data     0.051998                       # miss rate for ReadSharedReq accesses
system.l2.ReadSharedReq_miss_rate::total     0.051998                       # miss rate for ReadSharedReq accesses
system.l2.ReadSharedReq_avg_miss_latency::.cpu.data 78121.549080                       # average ReadSharedReq miss latency
system.l2.ReadSharedReq_avg_miss_latency::total 78121.549080                       # average ReadSharedReq miss latency
system.l2.ReadSharedReq_mshr_hits::.cpu.data            6                       # number of ReadSharedReq MSHR hits
system.l2.ReadSharedReq_mshr_hits::total            6                       # number of ReadSharedReq MSHR hits
system.l2.ReadSharedReq_mshr_misses::.cpu.data         1298                       # number of ReadSharedReq MSHR misses
system.l2.ReadSharedReq_mshr_misses::total         1298                       # number of ReadSharedReq MSHR misses
system.l2.ReadSharedReq_mshr_miss_latency::.cpu.data     88499500                       # number of ReadSharedReq MSHR miss cycles
system.l2.ReadSharedReq_mshr_miss_latency::total     88499500                       # number of ReadSharedReq MSHR miss cycles
system.l2.ReadSharedReq_mshr_miss_rate::.cpu.data     0.051759                       # mshr miss rate for ReadSharedReq accesses
system.l2.ReadSharedReq_mshr_miss_rate::total     0.051759                       # mshr miss rate for ReadSharedReq accesses
system.l2.ReadSharedReq_avg_mshr_miss_latency::.cpu.data 68181.432974                       # average ReadSharedReq mshr miss latency
system.l2.ReadSharedReq_avg_mshr_miss_latency::total 68181.432974                       # average ReadSharedReq mshr miss latency
system.l2.power_state.pwrStateResidencyTicks::UNDEFINED  64294406500                       # Cumulative time (in ticks) in various power states
system.l2.tags.tagsinuse                 10937.971497                       # Cycle average of tags in use
system.l2.tags.total_refs                      294333                       # Total number of references to valid blocks.
system.l2.tags.sampled_refs                     11339                       # Sample count of references to valid blocks.
system.l2.tags.avg_refs                     25.957580                       # Average number of references to valid blocks.
system.l2.tags.warmup_cycle                     77000                       # Cycle when the warmup percentage was hit.
system.l2.tags.occ_blocks::.cpu.inst      2766.512826                       # Average occupied blocks per requestor
system.l2.tags.occ_blocks::.cpu.data      8171.458671                       # Average occupied blocks per requestor
system.l2.tags.occ_percent::.cpu.inst        0.042214                       # Average percentage of cache occupancy
system.l2.tags.occ_percent::.cpu.data        0.124687                       # Average percentage of cache occupancy
system.l2.tags.occ_percent::total            0.166900                       # Average percentage of cache occupancy
system.l2.tags.occ_task_id_blocks::1024         11339                       # Occupied blocks per task id
system.l2.tags.age_task_id_blocks_1024::4        11339                       # Occupied blocks per task id
system.l2.tags.occ_task_id_percent::1024     0.173019                       # Percentage of cache occupancy per task id
system.l2.tags.tag_accesses                   2366059                       # Number of tag accesses
system.l2.tags.data_accesses                  2366059                       # Number of data accesses
system.l2.tags.power_state.pwrStateResidencyTicks::UNDEFINED  64294406500                       # Cumulative time (in ticks) in various power states
system.mem_ctrls.avgPriority_.cpu.inst::samples      2786.00                       # Average QoS priority value for accepted requests
system.mem_ctrls.avgPriority_.cpu.data::samples      8553.00                       # Average QoS priority value for accepted requests
system.mem_ctrls.priorityMinLatency      0.000000018750                       # per QoS priority minimum request to response latency (s)
system.mem_ctrls.priorityMaxLatency      0.000000584000                       # per QoS priority maximum request to response latency (s)
system.mem_ctrls.numReadWriteTurnArounds            0                       # Number of turnarounds from READ to WRITE
system.mem_ctrls.numWriteReadTurnArounds            0                       # Number of turnarounds from WRITE to READ
system.mem_ctrls.numStayReadState               39180                       # Number of times bus staying in READ state
system.mem_ctrls.numStayWriteState                  0                       # Number of times bus staying in WRITE state
system.mem_ctrls.readReqs                       11339                       # Number of read requests accepted
system.mem_ctrls.writeReqs                          0                       # Number of write requests accepted
system.mem_ctrls.readBursts                     11339                       # Number of controller read bursts, including those serviced by the write queue
system.mem_ctrls.writeBursts                        0                       # Number of controller write bursts, including those merged in the write queue
system.mem_ctrls.servicedByWrQ                      0                       # Number of controller read bursts serviced by the write queue
system.mem_ctrls.mergedWrBursts                     0                       # Number of controller write bursts merged with an existing one
system.mem_ctrls.neitherReadNorWriteReqs            0                       # Number of requests that are neither read nor write
system.mem_ctrls.avgRdQLen                       1.00                       # Average read queue length when enqueuing
system.mem_ctrls.avgWrQLen                       0.00                       # Average write queue length when enqueuing
system.mem_ctrls.numRdRetry                         0                       # Number of times read queue was full causing retry
system.mem_ctrls.numWrRetry                         0                       # Number of times write queue was full causing retry
system.mem_ctrls.readPktSize::0                     0                       # Read request sizes (log2)
system.mem_ctrls.readPktSize::1                     0                       # Read request sizes (log2)
system.mem_ctrls.readPktSize::2                     0                       # Read request sizes (log2)
system.mem_ctrls.readPktSize::3                     0                       # Read request sizes (log2)
system.mem_ctrls.readPktSize::4                     0                       # Read request sizes (log2)
system.mem_ctrls.readPktSize::5                 11339                       # Read request sizes (log2)
system.mem_ctrls.writePktSize::0                    0                       # Write request sizes (log2)
system.mem_ctrls.writePktSize::1                    0                       # Write request sizes (log2)
system.mem_ctrls.writePktSize::2                    0                       # Write request sizes (log2)
system.mem_ctrls.writePktSize::3                    0                       # Write request sizes (log2)
system.mem_ctrls.writePktSize::4                    0                       # Write request sizes (log2)
system.mem_ctrls.writePktSize::5                    0                       # Write request sizes (log2)
[...]
system.mem_ctrls.dram.bw_read::.cpu.data      4256918                       # Total read bandwidth from this memory (bytes/s)
system.mem_ctrls.dram.bw_read::total          5643539                       # Total read bandwidth from this memory (bytes/s)
system.mem_ctrls.dram.bw_inst_read::.cpu.inst      1386621                       # Instruction read bandwidth from this memory (bytes/s)
system.mem_ctrls.dram.bw_inst_read::total      1386621                       # Instruction read bandwidth from this memory (bytes/s)
system.mem_ctrls.dram.bw_total::.cpu.inst      1386621                       # Total bandwidth to/from this memory (bytes/s)
system.mem_ctrls.dram.bw_total::.cpu.data      4256918                       # Total bandwidth to/from this memory (bytes/s)
system.mem_ctrls.dram.bw_total::total         5643539                       # Total bandwidth to/from this memory (bytes/s)
system.mem_ctrls.dram.readBursts                11339                       # Number of DRAM read bursts
system.mem_ctrls.dram.writeBursts                   0                       # Number of DRAM write bursts
system.mem_ctrls.dram.perBankRdBursts::0          777                       # Per bank write bursts
system.mem_ctrls.dram.perBankRdBursts::1          709                       # Per bank write bursts
system.mem_ctrls.dram.perBankRdBursts::2          656                       # Per bank write bursts
system.mem_ctrls.dram.perBankRdBursts::3          842                       # Per bank write bursts
system.mem_ctrls.dram.perBankRdBursts::4          727                       # Per bank write bursts
system.mem_ctrls.dram.perBankRdBursts::5          811                       # Per bank write bursts
system.mem_ctrls.dram.perBankRdBursts::6          508                       # Per bank write bursts
system.mem_ctrls.dram.perBankRdBursts::7          556                       # Per bank write bursts
system.mem_ctrls.dram.perBankRdBursts::8          504                       # Per bank write bursts
system.mem_ctrls.dram.perBankRdBursts::9          838                       # Per bank write bursts
system.mem_ctrls.dram.perBankRdBursts::10          604                       # Per bank write bursts
system.mem_ctrls.dram.perBankRdBursts::11          720                       # Per bank write bursts
system.mem_ctrls.dram.perBankRdBursts::12          825                       # Per bank write bursts
system.mem_ctrls.dram.perBankRdBursts::13          895                       # Per bank write bursts
system.mem_ctrls.dram.perBankRdBursts::14          747                       # Per bank write bursts
system.mem_ctrls.dram.perBankRdBursts::15          620                       # Per bank write bursts
system.mem_ctrls.dram.perBankWrBursts::0            0                       # Per bank write bursts
system.mem_ctrls.dram.perBankWrBursts::1            0                       # Per bank write bursts
system.mem_ctrls.dram.perBankWrBursts::2            0                       # Per bank write bursts
system.mem_ctrls.dram.perBankWrBursts::3            0                       # Per bank write bursts
system.mem_ctrls.dram.perBankWrBursts::4            0                       # Per bank write bursts
system.mem_ctrls.dram.perBankWrBursts::5            0                       # Per bank write bursts
system.mem_ctrls.dram.perBankWrBursts::6            0                       # Per bank write bursts
system.mem_ctrls.dram.perBankWrBursts::7            0                       # Per bank write bursts
system.mem_ctrls.dram.perBankWrBursts::8            0                       # Per bank write bursts
system.mem_ctrls.dram.perBankWrBursts::9            0                       # Per bank write bursts
system.mem_ctrls.dram.perBankWrBursts::10            0                       # Per bank write bursts
system.mem_ctrls.dram.perBankWrBursts::11            0                       # Per bank write bursts
system.mem_ctrls.dram.perBankWrBursts::12            0                       # Per bank write bursts
system.mem_ctrls.dram.perBankWrBursts::13            0                       # Per bank write bursts
system.mem_ctrls.dram.perBankWrBursts::14            0                       # Per bank write bursts
system.mem_ctrls.dram.perBankWrBursts::15            0                       # Per bank write bursts
system.mem_ctrls.dram.totQLat                67653000                       # Total ticks spent queuing
system.mem_ctrls.dram.totBusLat              56695000                       # Total ticks spent in databus transfers
system.mem_ctrls.dram.totMemAccLat          280259250                       # Total ticks spent from burst creation until serviced by the DRAM
system.mem_ctrls.dram.avgQLat                 5966.40                       # Average queueing delay per DRAM burst
system.mem_ctrls.dram.avgBusLat               5000.00                       # Average bus latency per DRAM burst
system.mem_ctrls.dram.avgMemAccLat           24716.40                       # Average memory access latency per DRAM burst
system.mem_ctrls.dram.readRowHits                9735                       # Number of row buffer hits during reads
system.mem_ctrls.dram.writeRowHits                  0                       # Number of row buffer hits during writes
system.mem_ctrls.dram.readRowHitRate            85.85                       # Row buffer hit rate for reads
system.mem_ctrls.dram.writeRowHitRate             nan                       # Row buffer hit rate for writes
system.mem_ctrls.dram.bytesPerActivate::samples         1604                       # Bytes accessed per row activation
system.mem_ctrls.dram.bytesPerActivate::mean   452.428928                       # Bytes accessed per row activation
system.mem_ctrls.dram.bytesPerActivate::gmean   309.552621                       # Bytes accessed per row activation
system.mem_ctrls.dram.bytesPerActivate::stdev   343.976403                       # Bytes accessed per row activation
system.mem_ctrls.dram.bytesPerActivate::0-127          263     16.40%     16.40% # Bytes accessed per row activation
system.mem_ctrls.dram.bytesPerActivate::128-255          324     20.20%     36.60% # Bytes accessed per row activation
system.mem_ctrls.dram.bytesPerActivate::256-383          125      7.79%     44.39% # Bytes accessed per row activation
system.mem_ctrls.dram.bytesPerActivate::384-511          314     19.58%     63.97% # Bytes accessed per row activation
system.mem_ctrls.dram.bytesPerActivate::512-639           95      5.92%     69.89% # Bytes accessed per row activation
system.mem_ctrls.dram.bytesPerActivate::640-767           52      3.24%     73.13% # Bytes accessed per row activation
system.mem_ctrls.dram.bytesPerActivate::768-895          112      6.98%     80.11% # Bytes accessed per row activation
system.mem_ctrls.dram.bytesPerActivate::896-1023           32      2.00%     82.11% # Bytes accessed per row activation
system.mem_ctrls.dram.bytesPerActivate::1024-1151          287     17.89%    100.00% # Bytes accessed per row activation
system.mem_ctrls.dram.bytesPerActivate::total         1604                       # Bytes accessed per row activation
system.mem_ctrls.dram.bytesRead                725696                       # Total number of bytes read from DRAM
system.mem_ctrls.dram.bytesWritten                  0                       # Total number of bytes written to DRAM
system.mem_ctrls.dram.avgRdBW               11.287078                       # Average DRAM read bandwidth in MiBytes/s
system.mem_ctrls.dram.avgWrBW                       0                       # Average DRAM write bandwidth in MiBytes/s
system.mem_ctrls.dram.peakBW                 12800.00                       # Theoretical peak bandwidth in MiByte/s
system.mem_ctrls.dram.busUtil                    0.09                       # Data bus utilization in percentage
system.mem_ctrls.dram.busUtilRead                0.09                       # Data bus utilization in percentage for reads
system.mem_ctrls.dram.busUtilWrite               0.00                       # Data bus utilization in percentage for writes
system.mem_ctrls.dram.pageHitRate               85.85                       # Row buffer hit rate, read and write combined
system.mem_ctrls.dram.power_state.pwrStateResidencyTicks::UNDEFINED  64294406500                       # Cumulative time (in ticks) in various power states
system.mem_ctrls.dram.rank0.actEnergy         5226480                       # Energy for activate commands per rank (pJ)
system.mem_ctrls.dram.rank0.preEnergy         2777940                       # Energy for precharge commands per rank (pJ)
system.mem_ctrls.dram.rank0.readEnergy       39884040                       # Energy for read commands per rank (pJ)
system.mem_ctrls.dram.rank0.writeEnergy             0                       # Energy for write commands per rank (pJ)
system.mem_ctrls.dram.rank0.refreshEnergy 5075082480.000001                       # Energy for refresh commands per rank (pJ)
system.mem_ctrls.dram.rank0.actBackEnergy   1694829450                       # Energy for active background per rank (pJ)
system.mem_ctrls.dram.rank0.preBackEnergy  23261827680                       # Energy for precharge background per rank (pJ)
system.mem_ctrls.dram.rank0.actPowerDownEnergy            0                       # Energy for active power-down per rank (pJ)
system.mem_ctrls.dram.rank0.prePowerDownEnergy            0                       # Energy for precharge power-down per rank (pJ)
system.mem_ctrls.dram.rank0.selfRefreshEnergy            0                       # Energy for self refresh per rank (pJ)
system.mem_ctrls.dram.rank0.totalEnergy   30079628070                       # Total energy per rank (pJ)
system.mem_ctrls.dram.rank0.averagePower   467.842068                       # Core power per rank (mW)
system.mem_ctrls.dram.rank0.totalIdleTime            0                       # Total Idle time Per DRAM Rank
system.mem_ctrls.dram.rank0.pwrStateTime::IDLE  60459056750                       # Time in different power states
system.mem_ctrls.dram.rank0.pwrStateTime::REF   2146820000                       # Time in different power states
system.mem_ctrls.dram.rank0.pwrStateTime::SREF            0                       # Time in different power states
system.mem_ctrls.dram.rank0.pwrStateTime::PRE_PDN            0                       # Time in different power states
system.mem_ctrls.dram.rank0.pwrStateTime::ACT   1688529750                       # Time in different power states
system.mem_ctrls.dram.rank0.pwrStateTime::ACT_PDN            0                       # Time in different power states
system.mem_ctrls.dram.rank1.actEnergy         6226080                       # Energy for activate commands per rank (pJ)
system.mem_ctrls.dram.rank1.preEnergy         3309240                       # Energy for precharge commands per rank (pJ)
system.mem_ctrls.dram.rank1.readEnergy       41076420                       # Energy for read commands per rank (pJ)
system.mem_ctrls.dram.rank1.writeEnergy             0                       # Energy for write commands per rank (pJ)
system.mem_ctrls.dram.rank1.refreshEnergy 5075082480.000001                       # Energy for refresh commands per rank (pJ)
system.mem_ctrls.dram.rank1.actBackEnergy   1904904090                       # Energy for active background per rank (pJ)
system.mem_ctrls.dram.rank1.preBackEnergy  23084922720                       # Energy for precharge background per rank (pJ)
system.mem_ctrls.dram.rank1.actPowerDownEnergy            0                       # Energy for active power-down per rank (pJ)
system.mem_ctrls.dram.rank1.prePowerDownEnergy            0                       # Energy for precharge power-down per rank (pJ)
system.mem_ctrls.dram.rank1.selfRefreshEnergy            0                       # Energy for self refresh per rank (pJ)
system.mem_ctrls.dram.rank1.totalEnergy   30115521030                       # Total energy per rank (pJ)
system.mem_ctrls.dram.rank1.averagePower   468.400327                       # Core power per rank (mW)
system.mem_ctrls.dram.rank1.totalIdleTime            0                       # Total Idle time Per DRAM Rank
system.mem_ctrls.dram.rank1.pwrStateTime::IDLE  59997698250                       # Time in different power states
system.mem_ctrls.dram.rank1.pwrStateTime::REF   2146820000                       # Time in different power states
system.mem_ctrls.dram.rank1.pwrStateTime::SREF            0                       # Time in different power states
system.mem_ctrls.dram.rank1.pwrStateTime::PRE_PDN            0                       # Time in different power states
system.mem_ctrls.dram.rank1.pwrStateTime::ACT   2149888250                       # Time in different power states
system.mem_ctrls.dram.rank1.pwrStateTime::ACT_PDN            0                       # Time in different power states
system.mem_ctrls.power_state.pwrStateResidencyTicks::UNDEFINED  64294406500                       # Cumulative time (in ticks) in various power states
system.membus.trans_dist::ReadResp               4084                       # Transaction distribution
system.membus.trans_dist::ReadExReq              7255                       # Transaction distribution
system.membus.trans_dist::ReadExResp             7255                       # Transaction distribution
system.membus.trans_dist::ReadSharedReq          4084                       # Transaction distribution
system.membus.pkt_count_system.l2.mem_side_port::system.mem_ctrls.port        22678                       # Packet count per connected requestor and responder (bytes)
system.membus.pkt_count::total                  22678                       # Packet count per connected requestor and responder (bytes)
system.membus.pkt_size_system.l2.mem_side_port::system.mem_ctrls.port       362848                       # Cumulative packet size per connected requestor and responder (bytes)
system.membus.pkt_size::total                  362848                       # Cumulative packet size per connected requestor and responder (bytes)
system.membus.snoops                                0                       # Total snoops (count)
system.membus.snoopTraffic                          0                       # Total snoop traffic (bytes)
system.membus.snoop_fanout::samples             11339                       # Request fanout histogram
system.membus.snoop_fanout::mean                    0                       # Request fanout histogram
system.membus.snoop_fanout::stdev                   0                       # Request fanout histogram
system.membus.snoop_fanout::underflows              0      0.00%      0.00% # Request fanout histogram
system.membus.snoop_fanout::0                   11339    100.00%    100.00% # Request fanout histogram
system.membus.snoop_fanout::1                       0      0.00%    100.00% # Request fanout histogram
system.membus.snoop_fanout::overflows               0      0.00%    100.00% # Request fanout histogram
system.membus.snoop_fanout::min_value               0                       # Request fanout histogram
system.membus.snoop_fanout::max_value               0                       # Request fanout histogram
system.membus.snoop_fanout::total               11339                       # Request fanout histogram
system.membus.power_state.pwrStateResidencyTicks::UNDEFINED  64294406500                       # Cumulative time (in ticks) in various power states
system.membus.reqLayer0.occupancy            13437000                       # Layer occupancy (ticks)
system.membus.reqLayer0.utilization               0.0                       # Layer utilization (%)
system.membus.respLayer1.occupancy           37338750                       # Layer occupancy (ticks)
system.membus.respLayer1.utilization              0.1                       # Layer utilization (%)
system.tol2bus.trans_dist::ReadResp             31016                       # Transaction distribution
system.tol2bus.trans_dist::WritebackDirty       138609                       # Transaction distribution
system.tol2bus.trans_dist::WritebackClean         4918                       # Transaction distribution
system.tol2bus.trans_dist::CleanEvict            2303                       # Transaction distribution
system.tol2bus.trans_dist::ReadExReq           117882                       # Transaction distribution
system.tol2bus.trans_dist::ReadExResp          117882                       # Transaction distribution
system.tol2bus.trans_dist::ReadCleanReq          5938                       # Transaction distribution
system.tol2bus.trans_dist::ReadSharedReq        25078                       # Transaction distribution
system.tol2bus.pkt_count_system.cpu.icache.mem_side_port::system.l2.cpu_side_port        16794                       # Packet count per connected requestor and responder (bytes)
system.tol2bus.pkt_count_system.cpu.dcache.mem_side_port::system.l2.cpu_side_port       426832                       # Packet count per connected requestor and responder (bytes)
system.tol2bus.pkt_count::total                443626                       # Packet count per connected requestor and responder (bytes)
system.tol2bus.pkt_size_system.cpu.icache.mem_side_port::system.l2.cpu_side_port       347392                       # Cumulative packet size per connected requestor and responder (bytes)
system.tol2bus.pkt_size_system.cpu.dcache.mem_side_port::system.l2.cpu_side_port      9010208                       # Cumulative packet size per connected requestor and responder (bytes)
system.tol2bus.pkt_size::total                9357600                       # Cumulative packet size per connected requestor and responder (bytes)
system.tol2bus.snoops                               0                       # Total snoops (count)
system.tol2bus.snoopTraffic                         0                       # Total snoop traffic (bytes)
system.tol2bus.snoop_fanout::samples           148898                       # Request fanout histogram
system.tol2bus.snoop_fanout::mean            0.002653                       # Request fanout histogram
system.tol2bus.snoop_fanout::stdev           0.051437                       # Request fanout histogram
system.tol2bus.snoop_fanout::underflows             0      0.00%      0.00% # Request fanout histogram
system.tol2bus.snoop_fanout::0                 148503     99.73%     99.73% # Request fanout histogram
system.tol2bus.snoop_fanout::1                    395      0.27%    100.00% # Request fanout histogram
system.tol2bus.snoop_fanout::2                      0      0.00%    100.00% # Request fanout histogram
system.tol2bus.snoop_fanout::overflows              0      0.00%    100.00% # Request fanout histogram
system.tol2bus.snoop_fanout::min_value              0                       # Request fanout histogram
system.tol2bus.snoop_fanout::max_value              1                       # Request fanout histogram
system.tol2bus.snoop_fanout::total             148898                       # Request fanout histogram
system.tol2bus.power_state.pwrStateResidencyTicks::UNDEFINED  64294406500                       # Cumulative time (in ticks) in various power states
system.tol2bus.reqLayer0.occupancy          219127500                       # Layer occupancy (ticks)
system.tol2bus.reqLayer0.utilization              0.3                       # Layer utilization (%)
system.tol2bus.respLayer0.occupancy           5938499                       # Layer occupancy (ticks)
system.tol2bus.respLayer0.utilization             0.0                       # Layer utilization (%)
system.tol2bus.respLayer1.occupancy         142962994                       # Layer occupancy (ticks)
system.tol2bus.respLayer1.utilization             0.2                       # Layer utilization (%)
system.voltage_domain.voltage                       1                       # Voltage in Volts

---------- End Simulation Statistics   ----------
