
---------- Begin Simulation Statistics ----------
final_tick                                84122231000                       # Number of ticks from beginning of simulation (restored from checkpoints and never reset)
host_inst_rate                                  73581                       # Simulator instruction rate (inst/s)
host_mem_usage                                 669244                       # Number of bytes of host memory used
host_op_rate                                    73761                       # Simulator op (including micro ops) rate (op/s)
host_seconds                                  1359.05                       # Real time elapsed on the host
host_tick_rate                               61897710                       # Simulator tick rate (ticks/s)
sim_freq                                 1000000000000                       # Frequency of simulated ticks
sim_insts                                   100000000                       # Number of instructions simulated
sim_ops                                     100245691                       # Number of ops (including micro ops) simulated
sim_seconds                                  0.084122                       # Number of seconds simulated
sim_ticks                                 84122231000                       # Number of ticks simulated
system.cpu.committedInsts                   100000000                       # Number of instructions committed
system.cpu.committedOps                     100245691                       # Number of ops (including micro ops) committed
system.cpu.cpi                               1.682445                       # CPI: cycles per instruction
system.cpu.discardedOps                        537558                       # Number of ops (including micro ops) which were discarded before commit
system.cpu.idleCycles                        37901114                       # Total number of cycles that the object has spent stopped
system.cpu.ipc                               0.594373                       # IPC: instructions per cycle
system.cpu.numCycles                        168244462                       # number of cpu cycles simulated
system.cpu.numFetchSuspends                         0                       # Number of times Execute suspended instruction fetching
system.cpu.numWorkItemsCompleted                    0                       # number of work items this cpu completed
system.cpu.numWorkItemsStarted                      0                       # number of work items this cpu started
system.cpu.op_class_0::No_OpClass                   0      0.00%      0.00% # Class of committed instruction
system.cpu.op_class_0::IntAlu                39795210     39.70%     39.70% # Class of committed instruction
system.cpu.op_class_0::IntMult                  20704      0.02%     39.72% # Class of committed instruction
system.cpu.op_class_0::IntDiv                       7      0.00%     39.72% # Class of committed instruction
system.cpu.op_class_0::FloatAdd                     0      0.00%     39.72% # Class of committed instruction
system.cpu.op_class_0::FloatCmp                     0      0.00%     39.72% # Class of committed instruction
system.cpu.op_class_0::FloatCvt                     0      0.00%     39.72% # Class of committed instruction
system.cpu.op_class_0::FloatMult                    0      0.00%     39.72% # Class of committed instruction
system.cpu.op_class_0::FloatMultAcc                 0      0.00%     39.72% # Class of committed instruction
system.cpu.op_class_0::FloatDiv                     0      0.00%     39.72% # Class of committed instruction
system.cpu.op_class_0::FloatMisc                    0      0.00%     39.72% # Class of committed instruction
system.cpu.op_class_0::FloatSqrt                    0      0.00%     39.72% # Class of committed instruction
system.cpu.op_class_0::SimdAdd                      0      0.00%     39.72% # Class of committed instruction
system.cpu.op_class_0::SimdAddAcc                   0      0.00%     39.72% # Class of committed instruction
system.cpu.op_class_0::SimdAlu                      0      0.00%     39.72% # Class of committed instruction
system.cpu.op_class_0::SimdCmp                      0      0.00%     39.72% # Class of committed instruction
system.cpu.op_class_0::SimdCvt                      0      0.00%     39.72% # Class of committed instruction
system.cpu.op_class_0::SimdMisc                     0      0.00%     39.72% # Class of committed instruction
system.cpu.op_class_0::SimdMult                     0      0.00%     39.72% # Class of committed instruction
system.cpu.op_class_0::SimdMultAcc                  0      0.00%     39.72% # Class of committed instruction
system.cpu.op_class_0::SimdShift                    0      0.00%     39.72% # Class of committed instruction
system.cpu.op_class_0::SimdShiftAcc                 0      0.00%     39.72% # Class of committed instruction
system.cpu.op_class_0::SimdDiv                      0      0.00%     39.72% # Class of committed instruction
system.cpu.op_class_0::SimdSqrt                     0      0.00%     39.72% # Class of committed instruction
system.cpu.op_class_0::SimdFloatAdd                 0      0.00%     39.72% # Class of committed instruction
system.cpu.op_class_0::SimdFloatAlu                 0      0.00%     39.72% # Class of committed instruction
system.cpu.op_class_0::SimdFloatCmp                 0      0.00%     39.72% # Class of committed instruction
system.cpu.op_class_0::SimdFloatCvt                 0      0.00%     39.72% # Class of committed instruction
system.cpu.op_class_0::SimdFloatDiv                 0      0.00%     39.72% # Class of committed instruction
system.cpu.op_class_0::SimdFloatMisc              102      0.00%     39.72% # Class of committed instruction
system.cpu.op_class_0::SimdFloatMult                0      0.00%     39.72% # Class of committed instruction
system.cpu.op_class_0::SimdFloatMultAcc             0      0.00%     39.72% # Class of committed instruction
system.cpu.op_class_0::SimdFloatSqrt                0      0.00%     39.72% # Class of committed instruction
system.cpu.op_class_0::SimdReduceAdd                0      0.00%     39.72% # Class of committed instruction
system.cpu.op_class_0::SimdReduceAlu                0      0.00%     39.72% # Class of committed instruction
system.cpu.op_class_0::SimdReduceCmp                0      0.00%     39.72% # Class of committed instruction
system.cpu.op_class_0::SimdFloatReduceAdd            0      0.00%     39.72% # Class of committed instruction
system.cpu.op_class_0::SimdFloatReduceCmp            0      0.00%     39.72% # Class of committed instruction
system.cpu.op_class_0::SimdAes                      0      0.00%     39.72% # Class of committed instruction
system.cpu.op_class_0::SimdAesMix                   0      0.00%     39.72% # Class of committed instruction
system.cpu.op_class_0::SimdSha1Hash                 0      0.00%     39.72% # Class of committed instruction
system.cpu.op_class_0::SimdSha1Hash2                0      0.00%     39.72% # Class of committed instruction
system.cpu.op_class_0::SimdSha256Hash               0      0.00%     39.72% # Class of committed instruction
system.cpu.op_class_0::SimdSha256Hash2              0      0.00%     39.72% # Class of committed instruction
system.cpu.op_class_0::SimdShaSigma2                0      0.00%     39.72% # Class of committed instruction
system.cpu.op_class_0::SimdShaSigma3                0      0.00%     39.72% # Class of committed instruction
system.cpu.op_class_0::SimdPredAlu                  0      0.00%     39.72% # Class of committed instruction
system.cpu.op_class_0::MemRead               47464384     47.35%     87.07% # Class of committed instruction
system.cpu.op_class_0::MemWrite              12965284     12.93%    100.00% # Class of committed instruction
system.cpu.op_class_0::FloatMemRead                 0      0.00%    100.00% # Class of committed instruction
system.cpu.op_class_0::FloatMemWrite                0      0.00%    100.00% # Class of committed instruction
system.cpu.op_class_0::IprAccess                    0      0.00%    100.00% # Class of committed instruction
system.cpu.op_class_0::InstPrefetch                 0      0.00%    100.00% # Class of committed instruction
system.cpu.op_class_0::total                100245691                       # Class of committed instruction
system.cpu.tickCycles                       130343348                       # Number of cycles that the object actually ticked
system.cpu.workload.numSyscalls                    84                       # Number of system calls
system.membus.snoop_filter.hit_multi_requests            0                       # Number of requests hitting in the snoop filter with multiple (>1) holders of the requested data.
system.membus.snoop_filter.hit_multi_snoops            0                       # Number of snoops hitting in the snoop filter with multiple (>1) holders of the requested data.
system.membus.snoop_filter.hit_single_requests       177143                       # Number of requests hitting in the snoop filter with a single holder of the requested data.
system.membus.snoop_filter.hit_single_snoops            0                       # Number of snoops hitting in the snoop filter with a single holder of the requested data.
system.membus.snoop_filter.tot_requests        387422                       # Total number of requests made to the snoop filter.
system.membus.snoop_filter.tot_snoops               0                       # Total number of snoops made to the snoop filter.
system.tol2bus.snoop_filter.hit_multi_requests           56                       # Number of requests hitting in the snoop filter with multiple (>1) holders of the requested data.
system.tol2bus.snoop_filter.hit_multi_snoops            0                       # Number of snoops hitting in the snoop filter with multiple (>1) holders of the requested data.
system.tol2bus.snoop_filter.hit_single_requests       771638                       # Number of requests hitting in the snoop filter with a single holder of the requested data.
system.tol2bus.snoop_filter.hit_single_snoops          633                       # Number of snoops hitting in the snoop filter with a single holder of the requested data.
system.tol2bus.snoop_filter.tot_requests      1544761                       # Total number of requests made to the snoop filter.
system.tol2bus.snoop_filter.tot_snoops            633                       # Total number of snoops made to the snoop filter.
system.clk_domain.clock                          1000                       # Clock period in ticks
system.cpu.branchPred.lookups                 6047291                       # Number of BP lookups
system.cpu.branchPred.condPredicted           4457288                       # Number of conditional branches predicted
system.cpu.branchPred.condIncorrect            188275                       # Number of conditional branches incorrect
system.cpu.branchPred.BTBLookups              4573896                       # Number of BTB lookups
system.cpu.branchPred.BTBHits                 4571719                       # Number of BTB hits
system.cpu.branchPred.BTBHitPct             99.952404                       # BTB Hit Percentage
system.cpu.branchPred.RASUsed                  136249                       # Number of times the RAS was used to get a target.
system.cpu.branchPred.RASIncorrect                117                       # Number of incorrect RAS predictions.
system.cpu.branchPred.indirectLookups             507                       # Number of indirect predictor lookups.
system.cpu.branchPred.indirectHits                274                       # Number of indirect target hits.
system.cpu.branchPred.indirectMisses              233                       # Number of indirect misses.
system.cpu.branchPred.indirectMispredicted          145                       # Number of mispredicted indirect branches.
system.cpu.dcache.demand_hits::.cpu.data     57512520                       # number of demand (read+write) hits
system.cpu.dcache.demand_hits::total         57512520                       # number of demand (read+write) hits
system.cpu.dcache.overall_hits::.cpu.data     57512534                       # number of overall hits
system.cpu.dcache.overall_hits::total        57512534                       # number of overall hits
system.cpu.dcache.demand_misses::.cpu.data       835394                       # number of demand (read+write) misses
system.cpu.dcache.demand_misses::total         835394                       # number of demand (read+write) misses
system.cpu.dcache.overall_misses::.cpu.data       835410                       # number of overall misses
system.cpu.dcache.overall_misses::total        835410                       # number of overall misses
system.cpu.dcache.demand_miss_latency::.cpu.data  27276435500                       # number of demand (read+write) miss cycles
system.cpu.dcache.demand_miss_latency::total  27276435500                       # number of demand (read+write) miss cycles
system.cpu.dcache.overall_miss_latency::.cpu.data  27276435500                       # number of overall miss cycles
system.cpu.dcache.overall_miss_latency::total  27276435500                       # number of overall miss cycles
system.cpu.dcache.demand_accesses::.cpu.data     58347914                       # number of demand (read+write) accesses
system.cpu.dcache.demand_accesses::total     58347914                       # number of demand (read+write) accesses
system.cpu.dcache.overall_accesses::.cpu.data     58347944                       # number of overall (read+write) accesses
system.cpu.dcache.overall_accesses::total     58347944                       # number of overall (read+write) accesses
system.cpu.dcache.demand_miss_rate::.cpu.data     0.014317                       # miss rate for demand accesses
system.cpu.dcache.demand_miss_rate::total     0.014317                       # miss rate for demand accesses
system.cpu.dcache.overall_miss_rate::.cpu.data     0.014318                       # miss rate for overall accesses
system.cpu.dcache.overall_miss_rate::total     0.014318                       # miss rate for overall accesses
system.cpu.dcache.demand_avg_miss_latency::.cpu.data 32650.983249                       # average overall miss latency
system.cpu.dcache.demand_avg_miss_latency::total 32650.983249                       # average overall miss latency
system.cpu.dcache.overall_avg_miss_latency::.cpu.data 32650.357908                       # average overall miss latency
system.cpu.dcache.overall_avg_miss_latency::total 32650.357908                       # average overall miss latency
system.cpu.dcache.blocked_cycles::no_mshrs            0                       # number of cycles access was blocked
system.cpu.dcache.blocked_cycles::no_targets            0                       # number of cycles access was blocked
system.cpu.dcache.blocked::no_mshrs                 0                       # number of cycles access was blocked
system.cpu.dcache.blocked::no_targets               0                       # number of cycles access was blocked
system.cpu.dcache.avg_blocked_cycles::no_mshrs          nan                       # average number of cycles each access was blocked
system.cpu.dcache.avg_blocked_cycles::no_targets          nan                       # average number of cycles each access was blocked
system.cpu.dcache.writebacks::.writebacks       667893                       # number of writebacks
system.cpu.dcache.writebacks::total            667893                       # number of writebacks
system.cpu.dcache.demand_mshr_hits::.cpu.data        63153                       # number of demand (read+write) MSHR hits
system.cpu.dcache.demand_mshr_hits::total        63153                       # number of demand (read+write) MSHR hits
system.cpu.dcache.overall_mshr_hits::.cpu.data        63153                       # number of overall MSHR hits
system.cpu.dcache.overall_mshr_hits::total        63153                       # number of overall MSHR hits
system.cpu.dcache.demand_mshr_misses::.cpu.data       772241                       # number of demand (read+write) MSHR misses
system.cpu.dcache.demand_mshr_misses::total       772241                       # number of demand (read+write) MSHR misses
system.cpu.dcache.overall_mshr_misses::.cpu.data       772252                       # number of overall MSHR misses
system.cpu.dcache.overall_mshr_misses::total       772252                       # number of overall MSHR misses
system.cpu.dcache.demand_mshr_miss_latency::.cpu.data  24764667500                       # number of demand (read+write) MSHR miss cycles
system.cpu.dcache.demand_mshr_miss_latency::total  24764667500                       # number of demand (read+write) MSHR miss cycles
system.cpu.dcache.overall_mshr_miss_latency::.cpu.data  24765613000                       # number of overall MSHR miss cycles
system.cpu.dcache.overall_mshr_miss_latency::total  24765613000                       # number of overall MSHR miss cycles
system.cpu.dcache.demand_mshr_miss_rate::.cpu.data     0.013235                       # mshr miss rate for demand accesses
system.cpu.dcache.demand_mshr_miss_rate::total     0.013235                       # mshr miss rate for demand accesses
system.cpu.dcache.overall_mshr_miss_rate::.cpu.data     0.013235                       # mshr miss rate for overall accesses
system.cpu.dcache.overall_mshr_miss_rate::total     0.013235                       # mshr miss rate for overall accesses
system.cpu.dcache.demand_avg_mshr_miss_latency::.cpu.data 32068.573800                       # average overall mshr miss latency
system.cpu.dcache.demand_avg_mshr_miss_latency::total 32068.573800                       # average overall mshr miss latency
system.cpu.dcache.overall_avg_mshr_miss_latency::.cpu.data 32069.341355                       # average overall mshr miss latency
system.cpu.dcache.overall_avg_mshr_miss_latency::total 32069.341355                       # average overall mshr miss latency
system.cpu.dcache.replacements                 771227                       # number of replacements
system.cpu.dcache.ReadReq_hits::.cpu.data     44933358                       # number of ReadReq hits
system.cpu.dcache.ReadReq_hits::total        44933358                       # number of ReadReq hits
system.cpu.dcache.ReadReq_misses::.cpu.data       458329                       # number of ReadReq misses
system.cpu.dcache.ReadReq_misses::total        458329                       # number of ReadReq misses
system.cpu.dcache.ReadReq_miss_latency::.cpu.data  10612606000                       # number of ReadReq miss cycles
system.cpu.dcache.ReadReq_miss_latency::total  10612606000                       # number of ReadReq miss cycles
system.cpu.dcache.ReadReq_accesses::.cpu.data     45391687                       # number of ReadReq accesses(hits+misses)
system.cpu.dcache.ReadReq_accesses::total     45391687                       # number of ReadReq accesses(hits+misses)
system.cpu.dcache.ReadReq_miss_rate::.cpu.data     0.010097                       # miss rate for ReadReq accesses
system.cpu.dcache.ReadReq_miss_rate::total     0.010097                       # miss rate for ReadReq accesses
system.cpu.dcache.ReadReq_avg_miss_latency::.cpu.data 23154.995647                       # average ReadReq miss latency
system.cpu.dcache.ReadReq_avg_miss_latency::total 23154.995647                       # average ReadReq miss latency
system.cpu.dcache.ReadReq_mshr_hits::.cpu.data           46                       # number of ReadReq MSHR hits
system.cpu.dcache.ReadReq_mshr_hits::total           46                       # number of ReadReq MSHR hits
system.cpu.dcache.ReadReq_mshr_misses::.cpu.data       458283                       # number of ReadReq MSHR misses
system.cpu.dcache.ReadReq_mshr_misses::total       458283                       # number of ReadReq MSHR misses
system.cpu.dcache.ReadReq_mshr_miss_latency::.cpu.data  10150455500                       # number of ReadReq MSHR miss cycles
system.cpu.dcache.ReadReq_mshr_miss_latency::total  10150455500                       # number of ReadReq MSHR miss cycles
system.cpu.dcache.ReadReq_mshr_miss_rate::.cpu.data     0.010096                       # mshr miss rate for ReadReq accesses
system.cpu.dcache.ReadReq_mshr_miss_rate::total     0.010096                       # mshr miss rate for ReadReq accesses
system.cpu.dcache.ReadReq_avg_mshr_miss_latency::.cpu.data 22148.880713                       # average ReadReq mshr miss latency
system.cpu.dcache.ReadReq_avg_mshr_miss_latency::total 22148.880713                       # average ReadReq mshr miss latency
system.cpu.dcache.WriteReq_hits::.cpu.data     12579162                       # number of WriteReq hits
system.cpu.dcache.WriteReq_hits::total       12579162                       # number of WriteReq hits
system.cpu.dcache.WriteReq_misses::.cpu.data       377065                       # number of WriteReq misses
system.cpu.dcache.WriteReq_misses::total       377065                       # number of WriteReq misses
system.cpu.dcache.WriteReq_miss_latency::.cpu.data  16663829500                       # number of WriteReq miss cycles
system.cpu.dcache.WriteReq_miss_latency::total  16663829500                       # number of WriteReq miss cycles
system.cpu.dcache.WriteReq_accesses::.cpu.data     12956227                       # number of WriteReq accesses(hits+misses)
system.cpu.dcache.WriteReq_accesses::total     12956227                       # number of WriteReq accesses(hits+misses)
system.cpu.dcache.WriteReq_miss_rate::.cpu.data     0.029103                       # miss rate for WriteReq accesses
system.cpu.dcache.WriteReq_miss_rate::total     0.029103                       # miss rate for WriteReq accesses
system.cpu.dcache.WriteReq_avg_miss_latency::.cpu.data 44193.519685                       # average WriteReq miss latency
system.cpu.dcache.WriteReq_avg_miss_latency::total 44193.519685                       # average WriteReq miss latency
system.cpu.dcache.WriteReq_mshr_hits::.cpu.data        63107                       # number of WriteReq MSHR hits
system.cpu.dcache.WriteReq_mshr_hits::total        63107                       # number of WriteReq MSHR hits
system.cpu.dcache.WriteReq_mshr_misses::.cpu.data       313958                       # number of WriteReq MSHR misses
system.cpu.dcache.WriteReq_mshr_misses::total       313958                       # number of WriteReq MSHR misses
system.cpu.dcache.WriteReq_mshr_miss_latency::.cpu.data  14614212000                       # number of WriteReq MSHR miss cycles
system.cpu.dcache.WriteReq_mshr_miss_latency::total  14614212000                       # number of WriteReq MSHR miss cycles
system.cpu.dcache.WriteReq_mshr_miss_rate::.cpu.data     0.024232                       # mshr miss rate for WriteReq accesses
system.cpu.dcache.WriteReq_mshr_miss_rate::total     0.024232                       # mshr miss rate for WriteReq accesses
system.cpu.dcache.WriteReq_avg_mshr_miss_latency::.cpu.data 46548.302639                       # average WriteReq mshr miss latency
system.cpu.dcache.WriteReq_avg_mshr_miss_latency::total 46548.302639                       # average WriteReq mshr miss latency
system.cpu.dcache.SoftPFReq_hits::.cpu.data           14                       # number of SoftPFReq hits
system.cpu.dcache.SoftPFReq_hits::total            14                       # number of SoftPFReq hits
system.cpu.dcache.SoftPFReq_misses::.cpu.data           16                       # number of SoftPFReq misses
system.cpu.dcache.SoftPFReq_misses::total           16                       # number of SoftPFReq misses
system.cpu.dcache.SoftPFReq_accesses::.cpu.data           30                       # number of SoftPFReq accesses(hits+misses)
system.cpu.dcache.SoftPFReq_accesses::total           30                       # number of SoftPFReq accesses(hits+misses)
system.cpu.dcache.SoftPFReq_miss_rate::.cpu.data     0.533333                       # miss rate for SoftPFReq accesses
system.cpu.dcache.SoftPFReq_miss_rate::total     0.533333                       # miss rate for SoftPFReq accesses
system.cpu.dcache.SoftPFReq_mshr_misses::.cpu.data           11                       # number of SoftPFReq MSHR misses
system.cpu.dcache.SoftPFReq_mshr_misses::total           11                       # number of SoftPFReq MSHR misses
system.cpu.dcache.SoftPFReq_mshr_miss_latency::.cpu.data       945500                       # number of SoftPFReq MSHR miss cycles
system.cpu.dcache.SoftPFReq_mshr_miss_latency::total       945500                       # number of SoftPFReq MSHR miss cycles
system.cpu.dcache.SoftPFReq_mshr_miss_rate::.cpu.data     0.366667                       # mshr miss rate for SoftPFReq accesses
system.cpu.dcache.SoftPFReq_mshr_miss_rate::total     0.366667                       # mshr miss rate for SoftPFReq accesses
system.cpu.dcache.SoftPFReq_avg_mshr_miss_latency::.cpu.data 85954.545455                       # average SoftPFReq mshr miss latency
system.cpu.dcache.SoftPFReq_avg_mshr_miss_latency::total 85954.545455                       # average SoftPFReq mshr miss latency
system.cpu.dcache.LoadLockedReq_hits::.cpu.data           61                       # number of LoadLockedReq hits
system.cpu.dcache.LoadLockedReq_hits::total           61                       # number of LoadLockedReq hits
system.cpu.dcache.LoadLockedReq_misses::.cpu.data            1                       # number of LoadLockedReq misses
system.cpu.dcache.LoadLockedReq_misses::total            1                       # number of LoadLockedReq misses
system.cpu.dcache.LoadLockedReq_miss_latency::.cpu.data        72000                       # number of LoadLockedReq miss cycles
system.cpu.dcache.LoadLockedReq_miss_latency::total        72000                       # number of LoadLockedReq miss cycles
system.cpu.dcache.LoadLockedReq_accesses::.cpu.data           62                       # number of LoadLockedReq accesses(hits+misses)
system.cpu.dcache.LoadLockedReq_accesses::total           62                       # number of LoadLockedReq accesses(hits+misses)
system.cpu.dcache.LoadLockedReq_miss_rate::.cpu.data     0.016129                       # miss rate for LoadLockedReq accesses
system.cpu.dcache.LoadLockedReq_miss_rate::total     0.016129                       # miss rate for LoadLockedReq accesses
system.cpu.dcache.LoadLockedReq_avg_miss_latency::.cpu.data        72000                       # average LoadLockedReq miss latency
system.cpu.dcache.LoadLockedReq_avg_miss_latency::total        72000                       # average LoadLockedReq miss latency
system.cpu.dcache.LoadLockedReq_mshr_misses::.cpu.data            1                       # number of LoadLockedReq MSHR misses
system.cpu.dcache.LoadLockedReq_mshr_misses::total            1                       # number of LoadLockedReq MSHR misses
system.cpu.dcache.LoadLockedReq_mshr_miss_latency::.cpu.data        71000                       # number of LoadLockedReq MSHR miss cycles
system.cpu.dcache.LoadLockedReq_mshr_miss_latency::total        71000                       # number of LoadLockedReq MSHR miss cycles
system.cpu.dcache.LoadLockedReq_mshr_miss_rate::.cpu.data     0.016129                       # mshr miss rate for LoadLockedReq accesses
system.cpu.dcache.LoadLockedReq_mshr_miss_rate::total     0.016129                       # mshr miss rate for LoadLockedReq accesses
system.cpu.dcache.LoadLockedReq_avg_mshr_miss_latency::.cpu.data        71000                       # average LoadLockedReq mshr miss latency
system.cpu.dcache.LoadLockedReq_avg_mshr_miss_latency::total        71000                       # average LoadLockedReq mshr miss latency
system.cpu.dcache.StoreCondReq_hits::.cpu.data           62                       # number of StoreCondReq hits
system.cpu.dcache.StoreCondReq_hits::total           62                       # number of StoreCondReq hits
system.cpu.dcache.StoreCondReq_accesses::.cpu.data           62                       # number of StoreCondReq accesses(hits+misses)
system.cpu.dcache.StoreCondReq_accesses::total           62                       # number of StoreCondReq accesses(hits+misses)
system.cpu.dcache.power_state.pwrStateResidencyTicks::UNDEFINED  84122231000                       # Cumulative time (in ticks) in various power states
system.cpu.dcache.tags.tagsinuse          1007.846292                       # Cycle average of tags in use
system.cpu.dcache.tags.total_refs            58284908                       # Total number of references to valid blocks.
system.cpu.dcache.tags.sampled_refs            772251                       # Sample count of references to valid blocks.
system.cpu.dcache.tags.avg_refs             75.474047                       # Average number of references to valid blocks.
system.cpu.dcache.tags.warmup_cycle            176500                       # Cycle when the warmup percentage was hit.
system.cpu.dcache.tags.occ_blocks::.cpu.data  1007.846292                       # Average occupied blocks per requestor
system.cpu.dcache.tags.occ_percent::.cpu.data     0.984225                       # Average percentage of cache occupancy
system.cpu.dcache.tags.occ_percent::total     0.984225                       # Average percentage of cache occupancy
system.cpu.dcache.tags.occ_task_id_blocks::1024         1024                       # Occupied blocks per task id
system.cpu.dcache.tags.age_task_id_blocks_1024::0          391                       # Occupied blocks per task id
system.cpu.dcache.tags.age_task_id_blocks_1024::1          306                       # Occupied blocks per task id
system.cpu.dcache.tags.age_task_id_blocks_1024::2          324                       # Occupied blocks per task id
system.cpu.dcache.tags.age_task_id_blocks_1024::3            1                       # Occupied blocks per task id
system.cpu.dcache.tags.age_task_id_blocks_1024::4            2                       # Occupied blocks per task id
system.cpu.dcache.tags.occ_task_id_percent::1024            1                       # Percentage of cache occupancy per task id
system.cpu.dcache.tags.tag_accesses         117468387                       # Number of tag accesses
system.cpu.dcache.tags.data_accesses        117468387                       # Number of data accesses
system.cpu.dcache.tags.power_state.pwrStateResidencyTicks::UNDEFINED  84122231000                       # Cumulative time (in ticks) in various power states
system.cpu.dtb.instHits                             0                       # ITB inst hits
system.cpu.dtb.instMisses                           0                       # ITB inst misses
system.cpu.dtb.readHits                             0                       # DTB read hits
system.cpu.dtb.readMisses                           0                       # DTB read misses
system.cpu.dtb.writeHits                            0                       # DTB write hits
system.cpu.dtb.writeMisses                          0                       # DTB write misses
system.cpu.dtb.inserts                              0                       # Number of times an entry is inserted into the TLB
system.cpu.dtb.flushTlb                             0                       # Number of times complete TLB was flushed
system.cpu.dtb.flushTlbMva                          0                       # Number of times TLB was flushed by MVA
system.cpu.dtb.flushTlbMvaAsid                      0                       # Number of times TLB was flushed by MVA & ASID
system.cpu.dtb.flushTlbAsid                         0                       # Number of times TLB was flushed by ASID
system.cpu.dtb.flushedEntries                       0                       # Number of entries that have been flushed from TLB
system.cpu.dtb.alignFaults                          0                       # Number of TLB faults due to alignment restrictions
system.cpu.dtb.prefetchFaults                       0                       # Number of TLB faults due to prefetch
system.cpu.dtb.domainFaults                         0                       # Number of TLB faults due to domain restrictions
system.cpu.dtb.permsFaults                          0                       # Number of TLB faults due to permissions restrictions
system.cpu.dtb.readAccesses                         0                       # DTB read accesses
system.cpu.dtb.writeAccesses                        0                       # DTB write accesses
system.cpu.dtb.instAccesses                         0                       # ITB inst accesses
system.cpu.dtb.hits                                 0                       # Total TLB (inst and data) hits
system.cpu.dtb.misses                               0                       # Total TLB (inst and data) misses
system.cpu.dtb.accesses                             0                       # Total TLB (inst and data) accesses
system.cpu.dtb.stage2_mmu.stage2_tlb.instHits            0                       # ITB inst hits
system.cpu.dtb.stage2_mmu.stage2_tlb.instMisses            0                       # ITB inst misses
system.cpu.dtb.stage2_mmu.stage2_tlb.readHits            0                       # DTB read hits
system.cpu.dtb.stage2_mmu.stage2_tlb.readMisses            0                       # DTB read misses
system.cpu.dtb.stage2_mmu.stage2_tlb.writeHits            0                       # DTB write hits
system.cpu.dtb.stage2_mmu.stage2_tlb.writeMisses            0                       # DTB write misses
system.cpu.dtb.stage2_mmu.stage2_tlb.inserts            0                       # Number of times an entry is inserted into the TLB
system.cpu.dtb.stage2_mmu.stage2_tlb.flushTlb            0                       # Number of times complete TLB was flushed
system.cpu.dtb.stage2_mmu.stage2_tlb.flushTlbMva            0                       # Number of times TLB was flushed by MVA
system.cpu.dtb.stage2_mmu.stage2_tlb.flushTlbMvaAsid            0                       # Number of times TLB was flushed by MVA & ASID
system.cpu.dtb.stage2_mmu.stage2_tlb.flushTlbAsid            0                       # Number of times TLB was flushed by ASID
system.cpu.dtb.stage2_mmu.stage2_tlb.flushedEntries            0                       # Number of entries that have been flushed from TLB
system.cpu.dtb.stage2_mmu.stage2_tlb.alignFaults            0                       # Number of TLB faults due to alignment restrictions
system.cpu.dtb.stage2_mmu.stage2_tlb.prefetchFaults            0                       # Number of TLB faults due to prefetch
system.cpu.dtb.stage2_mmu.stage2_tlb.domainFaults            0                       # Number of TLB faults due to domain restrictions
system.cpu.dtb.stage2_mmu.stage2_tlb.permsFaults            0                       # Number of TLB faults due to permissions restrictions
system.cpu.dtb.stage2_mmu.stage2_tlb.readAccesses            0                       # DTB read accesses
system.cpu.dtb.stage2_mmu.stage2_tlb.writeAccesses            0                       # DTB write accesses
system.cpu.dtb.stage2_mmu.stage2_tlb.instAccesses            0                       # ITB inst accesses
system.cpu.dtb.stage2_mmu.stage2_tlb.hits            0                       # Total TLB (inst and data) hits
system.cpu.dtb.stage2_mmu.stage2_tlb.misses            0                       # Total TLB (inst and data) misses
system.cpu.dtb.stage2_mmu.stage2_tlb.accesses            0                       # Total TLB (inst and data) accesses
system.cpu.dtb.stage2_mmu.stage2_tlb.walker.walks            0                       # Table walker walks requested
system.cpu.dtb.stage2_mmu.stage2_tlb.walker.requestOrigin_Requested::Data            0                       # Table walker requests started/completed, data/inst
system.cpu.dtb.stage2_mmu.stage2_tlb.walker.requestOrigin_Requested::Inst            0                       # Table walker requests started/completed, data/inst
system.cpu.dtb.stage2_mmu.stage2_tlb.walker.requestOrigin_Requested::total            0                       # Table walker requests started/completed, data/inst
system.cpu.dtb.stage2_mmu.stage2_tlb.walker.requestOrigin_Completed::Data            0                       # Table walker requests started/completed, data/inst
system.cpu.dtb.stage2_mmu.stage2_tlb.walker.requestOrigin_Completed::Inst            0                       # Table walker requests started/completed, data/inst
system.cpu.dtb.stage2_mmu.stage2_tlb.walker.requestOrigin_Completed::total            0                       # Table walker requests started/completed, data/inst
system.cpu.dtb.stage2_mmu.stage2_tlb.walker.requestOrigin::total            0                       # Table walker requests started/completed, data/inst
system.cpu.dtb.stage2_mmu.stage2_tlb.walker.power_state.pwrStateResidencyTicks::UNDEFINED  84122231000                       # Cumulative time (in ticks) in various power states
system.cpu.dtb.walker.walks                         0                       # Table walker walks requested
system.cpu.dtb.walker.requestOrigin_Requested::Data            0                       # Table walker requests started/completed, data/inst
system.cpu.dtb.walker.requestOrigin_Requested::Inst            0                       # Table walker requests started/completed, data/inst
system.cpu.dtb.walker.requestOrigin_Requested::total            0                       # Table walker requests started/completed, data/inst
system.cpu.dtb.walker.requestOrigin_Completed::Data            0                       # Table walker requests started/completed, data/inst
system.cpu.dtb.walker.requestOrigin_Completed::Inst            0                       # Table walker requests started/completed, data/inst
system.cpu.dtb.walker.requestOrigin_Completed::total            0                       # Table walker requests started/completed, data/inst
system.cpu.dtb.walker.requestOrigin::total            0                       # Table walker requests started/completed, data/inst
system.cpu.dtb.walker.power_state.pwrStateResidencyTicks::UNDEFINED  84122231000                       # Cumulative time (in ticks) in various power states
system.cpu.fetch2.intInstructions            35331882                       # Number of integer instructions successfully decoded
system.cpu.fetch2.fpInstructions                    0                       # Number of floating point instructions successfully decoded
system.cpu.fetch2.vecInstructions                   0                       # Number of SIMD instructions successfully decoded
system.cpu.fetch2.loadInstructions           49018146                       # Number of memory load instructions successfully decoded
system.cpu.fetch2.storeInstructions          13268713                       # Number of memory store instructions successfully decoded
system.cpu.fetch2.amoInstructions                   0                       # Number of memory atomic instructions successfully decoded
system.cpu.icache.demand_hits::.cpu.inst     18253368                       # number of demand (read+write) hits
system.cpu.icache.demand_hits::total         18253368                       # number of demand (read+write) hits
system.cpu.icache.overall_hits::.cpu.inst     18253368                       # number of overall hits
system.cpu.icache.overall_hits::total        18253368                       # number of overall hits
system.cpu.icache.demand_misses::.cpu.inst          871                       # number of demand (read+write) misses
system.cpu.icache.demand_misses::total            871                       # number of demand (read+write) misses
system.cpu.icache.overall_misses::.cpu.inst          871                       # number of overall misses
system.cpu.icache.overall_misses::total           871                       # number of overall misses
system.cpu.icache.demand_miss_latency::.cpu.inst     66522500                       # number of demand (read+write) miss cycles
system.cpu.icache.demand_miss_latency::total     66522500                       # number of demand (read+write) miss cycles
system.cpu.icache.overall_miss_latency::.cpu.inst     66522500                       # number of overall miss cycles
system.cpu.icache.overall_miss_latency::total     66522500                       # number of overall miss cycles
system.cpu.icache.demand_accesses::.cpu.inst     18254239                       # number of demand (read+write) accesses
system.cpu.icache.demand_accesses::total     18254239                       # number of demand (read+write) accesses
system.cpu.icache.overall_accesses::.cpu.inst     18254239                       # number of overall (read+write) accesses
system.cpu.icache.overall_accesses::total     18254239                       # number of overall (read+write) accesses
system.cpu.icache.demand_miss_rate::.cpu.inst     0.000048                       # miss rate for demand accesses
system.cpu.icache.demand_miss_rate::total     0.000048                       # miss rate for demand accesses
system.cpu.icache.overall_miss_rate::.cpu.inst     0.000048                       # miss rate for overall accesses
system.cpu.icache.overall_miss_rate::total     0.000048                       # miss rate for overall accesses
system.cpu.icache.demand_avg_miss_latency::.cpu.inst 76374.856487                       # average overall miss latency
system.cpu.icache.demand_avg_miss_latency::total 76374.856487                       # average overall miss latency
system.cpu.icache.overall_avg_miss_latency::.cpu.inst 76374.856487                       # average overall miss latency
system.cpu.icache.overall_avg_miss_latency::total 76374.856487                       # average overall miss latency
system.cpu.icache.blocked_cycles::no_mshrs            0                       # number of cycles access was blocked
system.cpu.icache.blocked_cycles::no_targets            0                       # number of cycles access was blocked
system.cpu.icache.blocked::no_mshrs                 0                       # number of cycles access was blocked
system.cpu.icache.blocked::no_targets               0                       # number of cycles access was blocked
system.cpu.icache.avg_blocked_cycles::no_mshrs          nan                       # average number of cycles each access was blocked
system.cpu.icache.avg_blocked_cycles::no_targets          nan                       # average number of cycles each access was blocked
system.cpu.icache.writebacks::.writebacks          411                       # number of writebacks
system.cpu.icache.writebacks::total               411                       # number of writebacks
system.cpu.icache.demand_mshr_misses::.cpu.inst          871                       # number of demand (read+write) MSHR misses
system.cpu.icache.demand_mshr_misses::total          871                       # number of demand (read+write) MSHR misses
system.cpu.icache.overall_mshr_misses::.cpu.inst          871                       # number of overall MSHR misses
system.cpu.icache.overall_mshr_misses::total          871                       # number of overall MSHR misses
system.cpu.icache.demand_mshr_miss_latency::.cpu.inst     65651500                       # number of demand (read+write) MSHR miss cycles
system.cpu.icache.demand_mshr_miss_latency::total     65651500                       # number of demand (read+write) MSHR miss cycles
system.cpu.icache.overall_mshr_miss_latency::.cpu.inst     65651500                       # number of overall MSHR miss cycles
system.cpu.icache.overall_mshr_miss_latency::total     65651500                       # number of overall MSHR miss cycles
system.cpu.icache.demand_mshr_miss_rate::.cpu.inst     0.000048                       # mshr miss rate for demand accesses
system.cpu.icache.demand_mshr_miss_rate::total     0.000048                       # mshr miss rate for demand accesses
system.cpu.icache.overall_mshr_miss_rate::.cpu.inst     0.000048                       # mshr miss rate for overall accesses
system.cpu.icache.overall_mshr_miss_rate::total     0.000048                       # mshr miss rate for overall accesses
system.cpu.icache.demand_avg_mshr_miss_latency::.cpu.inst 75374.856487                       # average overall mshr miss latency
system.cpu.icache.demand_avg_mshr_miss_latency::total 75374.856487                       # average overall mshr miss latency
system.cpu.icache.overall_avg_mshr_miss_latency::.cpu.inst 75374.856487                       # average overall mshr miss latency
system.cpu.icache.overall_avg_mshr_miss_latency::total 75374.856487                       # average overall mshr miss latency
system.cpu.icache.replacements                    411                       # number of replacements
system.cpu.icache.ReadReq_hits::.cpu.inst     18253368                       # number of ReadReq hits
system.cpu.icache.ReadReq_hits::total        18253368                       # number of ReadReq hits
system.cpu.icache.ReadReq_misses::.cpu.inst          871                       # number of ReadReq misses
system.cpu.icache.ReadReq_misses::total           871                       # number of ReadReq misses
system.cpu.icache.ReadReq_miss_latency::.cpu.inst     66522500                       # number of ReadReq miss cycles
system.cpu.icache.ReadReq_miss_latency::total     66522500                       # number of ReadReq miss cycles
system.cpu.icache.ReadReq_accesses::.cpu.inst     18254239                       # number of ReadReq accesses(hits+misses)
system.cpu.icache.ReadReq_accesses::total     18254239                       # number of ReadReq accesses(hits+misses)
system.cpu.icache.ReadReq_miss_rate::.cpu.inst     0.000048                       # miss rate for ReadReq accesses
system.cpu.icache.ReadReq_miss_rate::total     0.000048                       # miss rate for ReadReq accesses
system.cpu.icache.ReadReq_avg_miss_latency::.cpu.inst 76374.856487                       # average ReadReq miss latency
system.cpu.icache.ReadReq_avg_miss_latency::total 76374.856487                       # average ReadReq miss latency
system.cpu.icache.ReadReq_mshr_misses::.cpu.inst          871                       # number of ReadReq MSHR misses
system.cpu.icache.ReadReq_mshr_misses::total          871                       # number of ReadReq MSHR misses
system.cpu.icache.ReadReq_mshr_miss_latency::.cpu.inst     65651500                       # number of ReadReq MSHR miss cycles
system.cpu.icache.ReadReq_mshr_miss_latency::total     65651500                       # number of ReadReq MSHR miss cycles
system.cpu.icache.ReadReq_mshr_miss_rate::.cpu.inst     0.000048                       # mshr miss rate for ReadReq accesses
system.cpu.icache.ReadReq_mshr_miss_rate::total     0.000048                       # mshr miss rate for ReadReq accesses
system.cpu.icache.ReadReq_avg_mshr_miss_latency::.cpu.inst 75374.856487                       # average ReadReq mshr miss latency
system.cpu.icache.ReadReq_avg_mshr_miss_latency::total 75374.856487                       # average ReadReq mshr miss latency
system.cpu.icache.power_state.pwrStateResidencyTicks::UNDEFINED  84122231000                       # Cumulative time (in ticks) in various power states
system.cpu.icache.tags.tagsinuse           425.845017                       # Cycle average of tags in use
system.cpu.icache.tags.total_refs            18254239                       # Total number of references to valid blocks.
system.cpu.icache.tags.sampled_refs               871                       # Sample count of references to valid blocks.
system.cpu.icache.tags.avg_refs          20957.794489                       # Average number of references to valid blocks.
system.cpu.icache.tags.warmup_cycle             87500                       # Cycle when the warmup percentage was hit.
system.cpu.icache.tags.occ_blocks::.cpu.inst   425.845017                       # Average occupied blocks per requestor
system.cpu.icache.tags.occ_percent::.cpu.inst     0.831729                       # Average percentage of cache occupancy
system.cpu.icache.tags.occ_percent::total     0.831729                       # Average percentage of cache occupancy
system.cpu.icache.tags.occ_task_id_blocks::1024          460                       # Occupied blocks per task id
system.cpu.icache.tags.age_task_id_blocks_1024::4          460                       # Occupied blocks per task id
system.cpu.icache.tags.occ_task_id_percent::1024     0.898438                       # Percentage of cache occupancy per task id
system.cpu.icache.tags.tag_accesses          36509349                       # Number of tag accesses
system.cpu.icache.tags.data_accesses         36509349                       # Number of data accesses
system.cpu.icache.tags.power_state.pwrStateResidencyTicks::UNDEFINED  84122231000                       # Cumulative time (in ticks) in various power states
system.cpu.itb.instHits                             0                       # ITB inst hits
system.cpu.itb.instMisses                           0                       # ITB inst misses
system.cpu.itb.readHits                             0                       # DTB read hits
system.cpu.itb.readMisses                           0                       # DTB read misses
system.cpu.itb.writeHits                            0                       # DTB write hits
system.cpu.itb.writeMisses                          0                       # DTB write misses
system.cpu.itb.inserts                              0                       # Number of times an entry is inserted into the TLB
system.cpu.itb.flushTlb                             0                       # Number of times complete TLB was flushed
system.cpu.itb.flushTlbMva                          0                       # Number of times TLB was flushed by MVA
system.cpu.itb.flushTlbMvaAsid                      0                       # Number of times TLB was flushed by MVA & ASID
system.cpu.itb.flushTlbAsid                         0                       # Number of times TLB was flushed by ASID
system.cpu.itb.flushedEntries                       0                       # Number of entries that have been flushed from TLB
system.cpu.itb.alignFaults                          0                       # Number of TLB faults due to alignment restrictions
system.cpu.itb.prefetchFaults                       0                       # Number of TLB faults due to prefetch
system.cpu.itb.domainFaults                         0                       # Number of TLB faults due to domain restrictions
system.cpu.itb.permsFaults                          0                       # Number of TLB faults due to permissions restrictions
system.cpu.itb.readAccesses                         0                       # DTB read accesses
system.cpu.itb.writeAccesses                        0                       # DTB write accesses
system.cpu.itb.instAccesses                         0                       # ITB inst accesses
system.cpu.itb.hits                                 0                       # Total TLB (inst and data) hits
system.cpu.itb.misses                               0                       # Total TLB (inst and data) misses
system.cpu.itb.accesses                             0                       # Total TLB (inst and data) accesses
system.cpu.itb.stage2_mmu.stage2_tlb.instHits            0                       # ITB inst hits
system.cpu.itb.stage2_mmu.stage2_tlb.instMisses            0                       # ITB inst misses
system.cpu.itb.stage2_mmu.stage2_tlb.readHits            0                       # DTB read hits
system.cpu.itb.stage2_mmu.stage2_tlb.readMisses            0                       # DTB read misses
system.cpu.itb.stage2_mmu.stage2_tlb.writeHits            0                       # DTB write hits
system.cpu.itb.stage2_mmu.stage2_tlb.writeMisses            0                       # DTB write misses
system.cpu.itb.stage2_mmu.stage2_tlb.inserts            0                       # Number of times an entry is inserted into the TLB
system.cpu.itb.stage2_mmu.stage2_tlb.flushTlb            0                       # Number of times complete TLB was flushed
system.cpu.itb.stage2_mmu.stage2_tlb.flushTlbMva            0                       # Number of times TLB was flushed by MVA
system.cpu.itb.stage2_mmu.stage2_tlb.flushTlbMvaAsid            0                       # Number of times TLB was flushed by MVA & ASID
system.cpu.itb.stage2_mmu.stage2_tlb.flushTlbAsid            0                       # Number of times TLB was flushed by ASID
system.cpu.itb.stage2_mmu.stage2_tlb.flushedEntries            0                       # Number of entries that have been flushed from TLB
system.cpu.itb.stage2_mmu.stage2_tlb.alignFaults            0                       # Number of TLB faults due to alignment restrictions
system.cpu.itb.stage2_mmu.stage2_tlb.prefetchFaults            0                       # Number of TLB faults due to prefetch
system.cpu.itb.stage2_mmu.stage2_tlb.domainFaults            0                       # Number of TLB faults due to domain restrictions
system.cpu.itb.stage2_mmu.stage2_tlb.permsFaults            0                       # Number of TLB faults due to permissions restrictions
system.cpu.itb.stage2_mmu.stage2_tlb.readAccesses            0                       # DTB read accesses
system.cpu.itb.stage2_mmu.stage2_tlb.writeAccesses            0                       # DTB write accesses
system.cpu.itb.stage2_mmu.stage2_tlb.instAccesses            0                       # ITB inst accesses
system.cpu.itb.stage2_mmu.stage2_tlb.hits            0                       # Total TLB (inst and data) hits
system.cpu.itb.stage2_mmu.stage2_tlb.misses            0                       # Total TLB (inst and data) misses
system.cpu.itb.stage2_mmu.stage2_tlb.accesses            0                       # Total TLB (inst and data) accesses
system.cpu.itb.stage2_mmu.stage2_tlb.walker.walks            0                       # Table walker walks requested
system.cpu.itb.stage2_mmu.stage2_tlb.walker.requestOrigin_Requested::Data            0                       # Table walker requests started/completed, data/inst
system.cpu.itb.stage2_mmu.stage2_tlb.walker.requestOrigin_Requested::Inst            0                       # Table walker requests started/completed, data/inst
system.cpu.itb.stage2_mmu.stage2_tlb.walker.requestOrigin_Requested::total            0                       # Table walker requests started/completed, data/inst
system.cpu.itb.stage2_mmu.stage2_tlb.walker.requestOrigin_Completed::Data            0                       # Table walker requests started/completed, data/inst
system.cpu.itb.stage2_mmu.stage2_tlb.walker.requestOrigin_Completed::Inst            0                       # Table walker requests started/completed, data/inst
system.cpu.itb.stage2_mmu.stage2_tlb.walker.requestOrigin_Completed::total            0                       # Table walker requests started/completed, data/inst
system.cpu.itb.stage2_mmu.stage2_tlb.walker.requestOrigin::total            0                       # Table walker requests started/completed, data/inst
system.cpu.itb.stage2_mmu.stage2_tlb.walker.power_state.pwrStateResidencyTicks::UNDEFINED  84122231000                       # Cumulative time (in ticks) in various power states
system.cpu.itb.walker.walks                         0                       # Table walker walks requested
system.cpu.itb.walker.requestOrigin_Requested::Data            0                       # Table walker requests started/completed, data/inst
system.cpu.itb.walker.requestOrigin_Requested::Inst            0                       # Table walker requests started/completed, data/inst
system.cpu.itb.walker.requestOrigin_Requested::total            0                       # Table walker requests started/completed, data/inst
system.cpu.itb.walker.requestOrigin_Completed::Data            0                       # Table walker requests started/completed, data/inst
system.cpu.itb.walker.requestOrigin_Completed::Inst            0                       # Table walker requests started/completed, data/inst
system.cpu.itb.walker.requestOrigin_Completed::total            0                       # Table walker requests started/completed, data/inst
system.cpu.itb.walker.requestOrigin::total            0                       # Table walker requests started/completed, data/inst
system.cpu.itb.walker.power_state.pwrStateResidencyTicks::UNDEFINED  84122231000                       # Cumulative time (in ticks) in various power states
system.cpu.power_state.pwrStateResidencyTicks::ON  84122231000                       # Cumulative time (in ticks) in various power states
system.cpu.thread_0.numInsts                100000000                       # Number of Instructions committed
system.cpu.thread_0.numOps                  100245691                       # Number of Ops committed
system.cpu.thread_0.numMemRefs                      0                       # Number of Memory References
system.cpu_clk_domain.clock                       500                       # Clock period in ticks
system.cpu_voltage_domain.voltage                   1                       # Voltage in Volts
system.l2.demand_hits::.cpu.inst                   52                       # number of demand (read+write) hits
system.l2.demand_hits::.cpu.data               562788                       # number of demand (read+write) hits
system.l2.demand_hits::total                   562840                       # number of demand (read+write) hits
system.l2.overall_hits::.cpu.inst                  52                       # number of overall hits
system.l2.overall_hits::.cpu.data              562788                       # number of overall hits
system.l2.overall_hits::total                  562840                       # number of overall hits
system.l2.demand_misses::.cpu.inst                819                       # number of demand (read+write) misses
system.l2.demand_misses::.cpu.data             209464                       # number of demand (read+write) misses
system.l2.demand_misses::total                 210283                       # number of demand (read+write) misses
system.l2.overall_misses::.cpu.inst               819                       # number of overall misses
system.l2.overall_misses::.cpu.data            209464                       # number of overall misses
system.l2.overall_misses::total                210283                       # number of overall misses
system.l2.demand_miss_latency::.cpu.inst     63790000                       # number of demand (read+write) miss cycles
system.l2.demand_miss_latency::.cpu.data  17682529500                       # number of demand (read+write) miss cycles
system.l2.demand_miss_latency::total      17746319500                       # number of demand (read+write) miss cycles
system.l2.overall_miss_latency::.cpu.inst     63790000                       # number of overall miss cycles
system.l2.overall_miss_latency::.cpu.data  17682529500                       # number of overall miss cycles
system.l2.overall_miss_latency::total     17746319500                       # number of overall miss cycles
system.l2.demand_accesses::.cpu.inst              871                       # number of demand (read+write) accesses
system.l2.demand_accesses::.cpu.data           772252                       # number of demand (read+write) accesses
system.l2.demand_accesses::total               773123                       # number of demand (read+write) accesses
system.l2.overall_accesses::.cpu.inst             871                       # number of overall (read+write) accesses
system.l2.overall_accesses::.cpu.data          772252                       # number of overall (read+write) accesses
system.l2.overall_accesses::total              773123                       # number of overall (read+write) accesses
system.l2.demand_miss_rate::.cpu.inst        0.940299                       # miss rate for demand accesses
system.l2.demand_miss_rate::.cpu.data        0.271238                       # miss rate for demand accesses
system.l2.demand_miss_rate::total            0.271992                       # miss rate for demand accesses
system.l2.overall_miss_rate::.cpu.inst       0.940299                       # miss rate for overall accesses
system.l2.overall_miss_rate::.cpu.data       0.271238                       # miss rate for overall accesses
system.l2.overall_miss_rate::total           0.271992                       # miss rate for overall accesses
system.l2.demand_avg_miss_latency::.cpu.inst 77887.667888                       # average overall miss latency
system.l2.demand_avg_miss_latency::.cpu.data 84417.988294                       # average overall miss latency
system.l2.demand_avg_miss_latency::total 84392.554320                       # average overall miss latency
system.l2.overall_avg_miss_latency::.cpu.inst 77887.667888                       # average overall miss latency
system.l2.overall_avg_miss_latency::.cpu.data 84417.988294                       # average overall miss latency
system.l2.overall_avg_miss_latency::total 84392.554320                       # average overall miss latency
system.l2.blocked_cycles::no_mshrs                  0                       # number of cycles access was blocked
system.l2.blocked_cycles::no_targets                0                       # number of cycles access was blocked
system.l2.blocked::no_mshrs                         0                       # number of cycles access was blocked
system.l2.blocked::no_targets                       0                       # number of cycles access was blocked
system.l2.avg_blocked_cycles::no_mshrs            nan                       # average number of cycles each access was blocked
system.l2.avg_blocked_cycles::no_targets          nan                       # average number of cycles each access was blocked
system.l2.writebacks::.writebacks              118925                       # number of writebacks
system.l2.writebacks::total                    118925                       # number of writebacks
system.l2.demand_mshr_hits::.cpu.data               2                       # number of demand (read+write) MSHR hits
system.l2.demand_mshr_hits::total                   2                       # number of demand (read+write) MSHR hits
system.l2.overall_mshr_hits::.cpu.data              2                       # number of overall MSHR hits
system.l2.overall_mshr_hits::total                  2                       # number of overall MSHR hits
system.l2.demand_mshr_misses::.cpu.inst           819                       # number of demand (read+write) MSHR misses
system.l2.demand_mshr_misses::.cpu.data        209462                       # number of demand (read+write) MSHR misses
system.l2.demand_mshr_misses::total            210281                       # number of demand (read+write) MSHR misses
system.l2.overall_mshr_misses::.cpu.inst          819                       # number of overall MSHR misses
system.l2.overall_mshr_misses::.cpu.data       209462                       # number of overall MSHR misses
system.l2.overall_mshr_misses::total           210281                       # number of overall MSHR misses
system.l2.demand_mshr_miss_latency::.cpu.inst     55600000                       # number of demand (read+write) MSHR miss cycles
system.l2.demand_mshr_miss_latency::.cpu.data  15587778000                       # number of demand (read+write) MSHR miss cycles
system.l2.demand_mshr_miss_latency::total  15643378000                       # number of demand (read+write) MSHR miss cycles
system.l2.overall_mshr_miss_latency::.cpu.inst     55600000                       # number of overall MSHR miss cycles
system.l2.overall_mshr_miss_latency::.cpu.data  15587778000                       # number of overall MSHR miss cycles
system.l2.overall_mshr_miss_latency::total  15643378000                       # number of overall MSHR miss cycles
system.l2.demand_mshr_miss_rate::.cpu.inst     0.940299                       # mshr miss rate for demand accesses
system.l2.demand_mshr_miss_rate::.cpu.data     0.271235                       # mshr miss rate for demand accesses
system.l2.demand_mshr_miss_rate::total       0.271989                       # mshr miss rate for demand accesses
system.l2.overall_mshr_miss_rate::.cpu.inst     0.940299                       # mshr miss rate for overall accesses
system.l2.overall_mshr_miss_rate::.cpu.data     0.271235                       # mshr miss rate for overall accesses
system.l2.overall_mshr_miss_rate::total      0.271989                       # mshr miss rate for overall accesses
system.l2.demand_avg_mshr_miss_latency::.cpu.inst 67887.667888                       # average overall mshr miss latency
system.l2.demand_avg_mshr_miss_latency::.cpu.data 74418.166541                       # average overall mshr miss latency
system.l2.demand_avg_mshr_miss_latency::total 74392.731631                       # average overall mshr miss latency
system.l2.overall_avg_mshr_miss_latency::.cpu.inst 67887.667888                       # average overall mshr miss latency
system.l2.overall_avg_mshr_miss_latency::.cpu.data 74418.166541                       # average overall mshr miss latency
system.l2.overall_avg_mshr_miss_latency::total 74392.731631                       # average overall mshr miss latency
system.l2.replacements                         177774                       # number of replacements
system.l2.WritebackDirty_hits::.writebacks       667893                       # number of WritebackDirty hits
system.l2.WritebackDirty_hits::total           667893                       # number of WritebackDirty hits
system.l2.WritebackDirty_accesses::.writebacks       667893                       # number of WritebackDirty accesses(hits+misses)
system.l2.WritebackDirty_accesses::total       667893                       # number of WritebackDirty accesses(hits+misses)
system.l2.WritebackClean_hits::.writebacks          398                       # number of WritebackClean hits
system.l2.WritebackClean_hits::total              398                       # number of WritebackClean hits
system.l2.WritebackClean_accesses::.writebacks          398                       # number of WritebackClean accesses(hits+misses)
system.l2.WritebackClean_accesses::total          398                       # number of WritebackClean accesses(hits+misses)
system.l2.ReadExReq_hits::.cpu.data            172435                       # number of ReadExReq hits
system.l2.ReadExReq_hits::total                172435                       # number of ReadExReq hits
system.l2.ReadExReq_misses::.cpu.data          141522                       # number of ReadExReq misses
system.l2.ReadExReq_misses::total              141522                       # number of ReadExReq misses
system.l2.ReadExReq_miss_latency::.cpu.data  12328170000                       # number of ReadExReq miss cycles
system.l2.ReadExReq_miss_latency::total   12328170000                       # number of ReadExReq miss cycles
system.l2.ReadExReq_accesses::.cpu.data        313957                       # number of ReadExReq accesses(hits+misses)
system.l2.ReadExReq_accesses::total            313957                       # number of ReadExReq accesses(hits+misses)
system.l2.ReadExReq_miss_rate::.cpu.data     0.450769                       # miss rate for ReadExReq accesses
system.l2.ReadExReq_miss_rate::total         0.450769                       # miss rate for ReadExReq accesses
system.l2.ReadExReq_avg_miss_latency::.cpu.data 87111.332514                       # average ReadExReq miss latency
system.l2.ReadExReq_avg_miss_latency::total 87111.332514                       # average ReadExReq miss latency
system.l2.ReadExReq_mshr_misses::.cpu.data       141522                       # number of ReadExReq MSHR misses
system.l2.ReadExReq_mshr_misses::total         141522                       # number of ReadExReq MSHR misses
system.l2.ReadExReq_mshr_miss_latency::.cpu.data  10912950000                       # number of ReadExReq MSHR miss cycles
system.l2.ReadExReq_mshr_miss_latency::total  10912950000                       # number of ReadExReq MSHR miss cycles
system.l2.ReadExReq_mshr_miss_rate::.cpu.data     0.450769                       # mshr miss rate for ReadExReq accesses
system.l2.ReadExReq_mshr_miss_rate::total     0.450769                       # mshr miss rate for ReadExReq accesses
system.l2.ReadExReq_avg_mshr_miss_latency::.cpu.data 77111.332514                       # average ReadExReq mshr miss latency
system.l2.ReadExReq_avg_mshr_miss_latency::total 77111.332514                       # average ReadExReq mshr miss latency
system.l2.ReadCleanReq_hits::.cpu.inst             52                       # number of ReadCleanReq hits
system.l2.ReadCleanReq_hits::total                 52                       # number of ReadCleanReq hits
system.l2.ReadCleanReq_misses::.cpu.inst          819                       # number of ReadCleanReq misses
system.l2.ReadCleanReq_misses::total              819                       # number of ReadCleanReq misses
system.l2.ReadCleanReq_miss_latency::.cpu.inst     63790000                       # number of ReadCleanReq miss cycles
system.l2.ReadCleanReq_miss_latency::total     63790000                       # number of ReadCleanReq miss cycles
system.l2.ReadCleanReq_accesses::.cpu.inst          871                       # number of ReadCleanReq accesses(hits+misses)
system.l2.ReadCleanReq_accesses::total            871                       # number of ReadCleanReq accesses(hits+misses)
system.l2.ReadCleanReq_miss_rate::.cpu.inst     0.940299                       # miss rate for ReadCleanReq accesses
system.l2.ReadCleanReq_miss_rate::total      0.940299                       # miss rate for ReadCleanReq accesses
system.l2.ReadCleanReq_avg_miss_latency::.cpu.inst 77887.667888                       # average ReadCleanReq miss latency
system.l2.ReadCleanReq_avg_miss_latency::total 77887.667888                       # average ReadCleanReq miss latency
system.l2.ReadCleanReq_mshr_misses::.cpu.inst          819                       # number of ReadCleanReq MSHR misses
system.l2.ReadCleanReq_mshr_misses::total          819                       # number of ReadCleanReq MSHR misses
system.l2.ReadCleanReq_mshr_miss_latency::.cpu.inst     55600000                       # number of ReadCleanReq MSHR miss cycles
system.l2.ReadCleanReq_mshr_miss_latency::total     55600000                       # number of ReadCleanReq MSHR miss cycles
system.l2.ReadCleanReq_mshr_miss_rate::.cpu.inst     0.940299                       # mshr miss rate for ReadCleanReq accesses
system.l2.ReadCleanReq_mshr_miss_rate::total     0.940299                       # mshr miss rate for ReadCleanReq accesses
system.l2.ReadCleanReq_avg_mshr_miss_latency::.cpu.inst 67887.667888                       # average ReadCleanReq mshr miss latency
system.l2.ReadCleanReq_avg_mshr_miss_latency::total 67887.667888                       # average ReadCleanReq mshr miss latency
system.l2.ReadSharedReq_hits::.cpu.data        390353                       # number of ReadSharedReq hits
system.l2.ReadSharedReq_hits::total            390353                       # number of ReadSharedReq hits
system.l2.ReadSharedReq_misses::.cpu.data        67942                       # number of ReadSharedReq misses
system.l2.ReadSharedReq_misses::total           67942                       # number of ReadSharedReq misses
system.l2.ReadSharedReq_miss_latency::.cpu.data   5354359500                       # number of ReadSharedReq miss cycles
system.l2.ReadSharedReq_miss_latency::total   5354359500                       # number of ReadSharedReq miss cycles
system.l2.ReadSharedReq_accesses::.cpu.data       458295                       # number of ReadSharedReq accesses(hits+misses)
system.l2.ReadSharedReq_accesses::total        458295                       # number of ReadSharedReq accesses(hits+misses)
system.l2.ReadSharedReq_miss_rate::.cpu.data     0.148249                       # miss rate for ReadSharedReq accesses
system.l2.ReadSharedReq_miss_rate::total     0.148249                       # miss rate for ReadSharedReq accesses
system.l2.ReadSharedReq_avg_miss_latency::.cpu.data 78807.799299                       # average ReadSharedReq miss latency
system.l2.ReadSharedReq_avg_miss_latency::total 78807.799299                       # average ReadSharedReq miss latency
system.l2.ReadSharedReq_mshr_hits::.cpu.data            2                       # number of ReadSharedReq MSHR hits
system.l2.ReadSharedReq_mshr_hits::total            2                       # number of ReadSharedReq MSHR hits
system.l2.ReadSharedReq_mshr_misses::.cpu.data        67940                       # number of ReadSharedReq MSHR misses
system.l2.ReadSharedReq_mshr_misses::total        67940                       # number of ReadSharedReq MSHR misses
system.l2.ReadSharedReq_mshr_miss_latency::.cpu.data   4674828000                       # number of ReadSharedReq MSHR miss cycles
system.l2.ReadSharedReq_mshr_miss_latency::total   4674828000                       # number of ReadSharedReq MSHR miss cycles
system.l2.ReadSharedReq_mshr_miss_rate::.cpu.data     0.148245                       # mshr miss rate for ReadSharedReq accesses
system.l2.ReadSharedReq_mshr_miss_rate::total     0.148245                       # mshr miss rate for ReadSharedReq accesses
system.l2.ReadSharedReq_avg_mshr_miss_latency::.cpu.data 68808.183691                       # average ReadSharedReq mshr miss latency
system.l2.ReadSharedReq_avg_mshr_miss_latency::total 68808.183691                       # average ReadSharedReq mshr miss latency
system.l2.power_state.pwrStateResidencyTicks::UNDEFINED  84122231000                       # Cumulative time (in ticks) in various power states
system.l2.tags.tagsinuse                 31922.235253                       # Cycle average of tags in use
system.l2.tags.total_refs                     1544703                       # Total number of references to valid blocks.
system.l2.tags.sampled_refs                    210542                       # Sample count of references to valid blocks.
system.l2.tags.avg_refs                      7.336793                       # Average number of references to valid blocks.
system.l2.tags.warmup_cycle                     77000                       # Cycle when the warmup percentage was hit.
system.l2.tags.occ_blocks::.writebacks      79.436955                       # Average occupied blocks per requestor
system.l2.tags.occ_blocks::.cpu.inst       122.185942                       # Average occupied blocks per requestor
system.l2.tags.occ_blocks::.cpu.data     31720.612355                       # Average occupied blocks per requestor
system.l2.tags.occ_percent::.writebacks      0.002424                       # Average percentage of cache occupancy
system.l2.tags.occ_percent::.cpu.inst        0.003729                       # Average percentage of cache occupancy
system.l2.tags.occ_percent::.cpu.data        0.968036                       # Average percentage of cache occupancy
system.l2.tags.occ_percent::total            0.974189                       # Average percentage of cache occupancy
system.l2.tags.occ_task_id_blocks::1024         32768                       # Occupied blocks per task id
system.l2.tags.age_task_id_blocks_1024::0           35                       # Occupied blocks per task id
system.l2.tags.age_task_id_blocks_1024::1           31                       # Occupied blocks per task id
system.l2.tags.age_task_id_blocks_1024::2          449                       # Occupied blocks per task id
system.l2.tags.age_task_id_blocks_1024::3         7303                       # Occupied blocks per task id
system.l2.tags.age_task_id_blocks_1024::4        24950                       # Occupied blocks per task id
system.l2.tags.occ_task_id_percent::1024            1                       # Percentage of cache occupancy per task id
system.l2.tags.tag_accesses                  12568182                       # Number of tag accesses
system.l2.tags.data_accesses                 12568182                       # Number of data accesses
system.l2.tags.power_state.pwrStateResidencyTicks::UNDEFINED  84122231000                       # Cumulative time (in ticks) in various power states
system.mem_ctrls.avgPriority_.writebacks::samples    118925.00                       # Average QoS priority value for accepted requests
system.mem_ctrls.avgPriority_.cpu.inst::samples       819.00                       # Average QoS priority value for accepted requests
system.mem_ctrls.avgPriority_.cpu.data::samples    209408.00                       # Average QoS priority value for accepted requests
system.mem_ctrls.priorityMinLatency      0.000000018750                       # per QoS priority minimum request to response latency (s)
system.mem_ctrls.priorityMaxLatency      0.002766120500                       # per QoS priority maximum request to response latency (s)
system.mem_ctrls.numReadWriteTurnArounds         7112                       # Number of turnarounds from READ to WRITE
system.mem_ctrls.numWriteReadTurnArounds         7112                       # Number of turnarounds from WRITE to READ
system.mem_ctrls.numStayReadState              550174                       # Number of times bus staying in READ state
system.mem_ctrls.numStayWriteState             111926                       # Number of times bus staying in WRITE state
system.mem_ctrls.readReqs                      210281                       # Number of read requests accepted
system.mem_ctrls.writeReqs                     118925                       # Number of write requests accepted
system.mem_ctrls.readBursts                    210281                       # Number of controller read bursts, including those serviced by the write queue
system.mem_ctrls.writeBursts                   118925                       # Number of controller write bursts, including those merged in the write queue
system.mem_ctrls.servicedByWrQ                     54                       # Number of controller read bursts serviced by the write queue
system.mem_ctrls.mergedWrBursts                     0                       # Number of controller write bursts merged with an existing one
system.mem_ctrls.neitherReadNorWriteReqs            0                       # Number of requests that are neither read nor write
system.mem_ctrls.avgRdQLen                       1.07                       # Average read queue length when enqueuing
system.mem_ctrls.avgWrQLen                      24.83                       # Average write queue length when enqueuing
system.mem_ctrls.numRdRetry                         0                       # Number of times read queue was full causing retry
system.mem_ctrls.numWrRetry                         0                       # Number of times write queue was full causing retry
system.mem_ctrls.readPktSize::0                     0                       # Read request sizes (log2)
system.mem_ctrls.readPktSize::1                     0                       # Read request sizes (log2)
system.mem_ctrls.readPktSize::2                     0                       # Read request sizes (log2)
system.mem_ctrls.readPktSize::3                     0                       # Read request sizes (log2)
system.mem_ctrls.readPktSize::4                     0                       # Read request sizes (log2)
system.mem_ctrls.readPktSize::5                     0                       # Read request sizes (log2)
system.mem_ctrls.readPktSize::6                210281                       # Read request sizes (log2)
system.mem_ctrls.writePktSize::0                    0                       # Write request sizes (log2)
[...]
system.mem_ctrls.dram.bw_write::.writebacks     90477867                       # Write bandwidth from this memory (bytes/s)
system.mem_ctrls.dram.bw_write::total        90477867                       # Write bandwidth from this memory (bytes/s)
system.mem_ctrls.dram.bw_total::.writebacks     90477867                       # Total bandwidth to/from this memory (bytes/s)
system.mem_ctrls.dram.bw_total::.cpu.inst       623093                       # Total bandwidth to/from this memory (bytes/s)
system.mem_ctrls.dram.bw_total::.cpu.data    159358208                       # Total bandwidth to/from this memory (bytes/s)
system.mem_ctrls.dram.bw_total::total       250459168                       # Total bandwidth to/from this memory (bytes/s)
system.mem_ctrls.dram.readBursts               210227                       # Number of DRAM read bursts
system.mem_ctrls.dram.writeBursts              118902                       # Number of DRAM write bursts
system.mem_ctrls.dram.perBankRdBursts::0        13166                       # Per bank write bursts
system.mem_ctrls.dram.perBankRdBursts::1        13320                       # Per bank write bursts
system.mem_ctrls.dram.perBankRdBursts::2        13562                       # Per bank write bursts
system.mem_ctrls.dram.perBankRdBursts::3        13531                       # Per bank write bursts
system.mem_ctrls.dram.perBankRdBursts::4        13269                       # Per bank write bursts
system.mem_ctrls.dram.perBankRdBursts::5        13230                       # Per bank write bursts
system.mem_ctrls.dram.perBankRdBursts::6        13354                       # Per bank write bursts
system.mem_ctrls.dram.perBankRdBursts::7        13113                       # Per bank write bursts
system.mem_ctrls.dram.perBankRdBursts::8        13180                       # Per bank write bursts
system.mem_ctrls.dram.perBankRdBursts::9        13017                       # Per bank write bursts
system.mem_ctrls.dram.perBankRdBursts::10        12998                       # Per bank write bursts
system.mem_ctrls.dram.perBankRdBursts::11        12883                       # Per bank write bursts
system.mem_ctrls.dram.perBankRdBursts::12        13026                       # Per bank write bursts
system.mem_ctrls.dram.perBankRdBursts::13        13066                       # Per bank write bursts
system.mem_ctrls.dram.perBankRdBursts::14        12628                       # Per bank write bursts
system.mem_ctrls.dram.perBankRdBursts::15        12884                       # Per bank write bursts
system.mem_ctrls.dram.perBankWrBursts::0         7338                       # Per bank write bursts
system.mem_ctrls.dram.perBankWrBursts::1         7500                       # Per bank write bursts
system.mem_ctrls.dram.perBankWrBursts::2         7612                       # Per bank write bursts
system.mem_ctrls.dram.perBankWrBursts::3         7618                       # Per bank write bursts
system.mem_ctrls.dram.perBankWrBursts::4         7445                       # Per bank write bursts
system.mem_ctrls.dram.perBankWrBursts::5         7459                       # Per bank write bursts
system.mem_ctrls.dram.perBankWrBursts::6         7619                       # Per bank write bursts
system.mem_ctrls.dram.perBankWrBursts::7         7455                       # Per bank write bursts
system.mem_ctrls.dram.perBankWrBursts::8         7503                       # Per bank write bursts
system.mem_ctrls.dram.perBankWrBursts::9         7441                       # Per bank write bursts
system.mem_ctrls.dram.perBankWrBursts::10         7532                       # Per bank write bursts
system.mem_ctrls.dram.perBankWrBursts::11         7461                       # Per bank write bursts
system.mem_ctrls.dram.perBankWrBursts::12         7392                       # Per bank write bursts
system.mem_ctrls.dram.perBankWrBursts::13         7355                       # Per bank write bursts
system.mem_ctrls.dram.perBankWrBursts::14         6976                       # Per bank write bursts
system.mem_ctrls.dram.perBankWrBursts::15         7196                       # Per bank write bursts
system.mem_ctrls.dram.totQLat              3043049500                       # Total ticks spent queuing
system.mem_ctrls.dram.totBusLat            1051135000                       # Total ticks spent in databus transfers
system.mem_ctrls.dram.totMemAccLat         6984805750                       # Total ticks spent from burst creation until serviced by the DRAM
system.mem_ctrls.dram.avgQLat                14475.07                       # Average queueing delay per DRAM burst
system.mem_ctrls.dram.avgBusLat               5000.00                       # Average bus latency per DRAM burst
system.mem_ctrls.dram.avgMemAccLat           33225.07                       # Average memory access latency per DRAM burst
system.mem_ctrls.dram.readRowHits              141812                       # Number of row buffer hits during reads
system.mem_ctrls.dram.writeRowHits              71566                       # Number of row buffer hits during writes
system.mem_ctrls.dram.readRowHitRate            67.46                       # Row buffer hit rate for reads
system.mem_ctrls.dram.writeRowHitRate           60.19                       # Row buffer hit rate for writes
system.mem_ctrls.dram.bytesPerActivate::samples       115741                       # Bytes accessed per row activation
system.mem_ctrls.dram.bytesPerActivate::mean   181.989235                       # Bytes accessed per row activation
system.mem_ctrls.dram.bytesPerActivate::gmean   107.535405                       # Bytes accessed per row activation
system.mem_ctrls.dram.bytesPerActivate::stdev   249.514404                       # Bytes accessed per row activation
system.mem_ctrls.dram.bytesPerActivate::0-127        77955     67.35%     67.35% # Bytes accessed per row activation
system.mem_ctrls.dram.bytesPerActivate::128-255        16670     14.40%     81.76% # Bytes accessed per row activation
system.mem_ctrls.dram.bytesPerActivate::256-383         2482      2.14%     83.90% # Bytes accessed per row activation
system.mem_ctrls.dram.bytesPerActivate::384-511         1590      1.37%     85.27% # Bytes accessed per row activation
system.mem_ctrls.dram.bytesPerActivate::512-639         8769      7.58%     92.85% # Bytes accessed per row activation
system.mem_ctrls.dram.bytesPerActivate::640-767          703      0.61%     93.46% # Bytes accessed per row activation
system.mem_ctrls.dram.bytesPerActivate::768-895         1339      1.16%     94.61% # Bytes accessed per row activation
system.mem_ctrls.dram.bytesPerActivate::896-1023          589      0.51%     95.12% # Bytes accessed per row activation
system.mem_ctrls.dram.bytesPerActivate::1024-1151         5644      4.88%    100.00% # Bytes accessed per row activation
system.mem_ctrls.dram.bytesPerActivate::total       115741                       # Bytes accessed per row activation
system.mem_ctrls.dram.bytesRead              13454528                       # Total number of bytes read from DRAM
system.mem_ctrls.dram.bytesWritten            7609728                       # Total number of bytes written to DRAM
system.mem_ctrls.dram.avgRdBW              159.940218                       # Average DRAM read bandwidth in MiBytes/s
system.mem_ctrls.dram.avgWrBW               90.460368                       # Average DRAM write bandwidth in MiBytes/s
system.mem_ctrls.dram.peakBW                 12800.00                       # Theoretical peak bandwidth in MiByte/s
system.mem_ctrls.dram.busUtil                    1.96                       # Data bus utilization in percentage
system.mem_ctrls.dram.busUtilRead                1.25                       # Data bus utilization in percentage for reads
system.mem_ctrls.dram.busUtilWrite               0.71                       # Data bus utilization in percentage for writes
system.mem_ctrls.dram.pageHitRate               64.83                       # Row buffer hit rate, read and write combined
system.mem_ctrls.dram.power_state.pwrStateResidencyTicks::UNDEFINED  84122231000                       # Cumulative time (in ticks) in various power states
system.mem_ctrls.dram.rank0.actEnergy       415212420                       # Energy for activate commands per rank (pJ)
system.mem_ctrls.dram.rank0.preEnergy       220667865                       # Energy for precharge commands per rank (pJ)
system.mem_ctrls.dram.rank0.readEnergy      760731300                       # Energy for read commands per rank (pJ)
system.mem_ctrls.dram.rank0.writeEnergy     313440120                       # Energy for write commands per rank (pJ)
system.mem_ctrls.dram.rank0.refreshEnergy 6639955920.000001                       # Energy for refresh commands per rank (pJ)
system.mem_ctrls.dram.rank0.actBackEnergy  21528434310                       # Energy for active background per rank (pJ)
system.mem_ctrls.dram.rank0.preBackEnergy  14173728960                       # Energy for precharge background per rank (pJ)
system.mem_ctrls.dram.rank0.actPowerDownEnergy            0                       # Energy for active power-down per rank (pJ)
system.mem_ctrls.dram.rank0.prePowerDownEnergy            0                       # Energy for precharge power-down per rank (pJ)
system.mem_ctrls.dram.rank0.selfRefreshEnergy            0                       # Energy for self refresh per rank (pJ)
system.mem_ctrls.dram.rank0.totalEnergy   44052170895                       # Total energy per rank (pJ)
system.mem_ctrls.dram.rank0.averagePower   523.668600                       # Core power per rank (mW)
system.mem_ctrls.dram.rank0.totalIdleTime            0                       # Total Idle time Per DRAM Rank
system.mem_ctrls.dram.rank0.pwrStateTime::IDLE  36624169500                       # Time in different power states
system.mem_ctrls.dram.rank0.pwrStateTime::REF   2808780000                       # Time in different power states
system.mem_ctrls.dram.rank0.pwrStateTime::SREF            0                       # Time in different power states
system.mem_ctrls.dram.rank0.pwrStateTime::PRE_PDN            0                       # Time in different power states
system.mem_ctrls.dram.rank0.pwrStateTime::ACT  44689281500                       # Time in different power states
system.mem_ctrls.dram.rank0.pwrStateTime::ACT_PDN            0                       # Time in different power states
system.mem_ctrls.dram.rank1.actEnergy       411249720                       # Energy for activate commands per rank (pJ)
system.mem_ctrls.dram.rank1.preEnergy       218569230                       # Energy for precharge commands per rank (pJ)
system.mem_ctrls.dram.rank1.readEnergy      740289480                       # Energy for read commands per rank (pJ)
system.mem_ctrls.dram.rank1.writeEnergy     307228320                       # Energy for write commands per rank (pJ)
system.mem_ctrls.dram.rank1.refreshEnergy 6639955920.000001                       # Energy for refresh commands per rank (pJ)
system.mem_ctrls.dram.rank1.actBackEnergy  20646473310                       # Energy for active background per rank (pJ)
system.mem_ctrls.dram.rank1.preBackEnergy  14916432960                       # Energy for precharge background per rank (pJ)
system.mem_ctrls.dram.rank1.actPowerDownEnergy            0                       # Energy for active power-down per rank (pJ)
system.mem_ctrls.dram.rank1.prePowerDownEnergy            0                       # Energy for precharge power-down per rank (pJ)
system.mem_ctrls.dram.rank1.selfRefreshEnergy            0                       # Energy for self refresh per rank (pJ)
system.mem_ctrls.dram.rank1.totalEnergy   43880198940                       # Total energy per rank (pJ)
system.mem_ctrls.dram.rank1.averagePower   521.624289                       # Core power per rank (mW)
system.mem_ctrls.dram.rank1.totalIdleTime            0                       # Total Idle time Per DRAM Rank
system.mem_ctrls.dram.rank1.pwrStateTime::IDLE  38565936500                       # Time in different power states
system.mem_ctrls.dram.rank1.pwrStateTime::REF   2808780000                       # Time in different power states
system.mem_ctrls.dram.rank1.pwrStateTime::SREF            0                       # Time in different power states
system.mem_ctrls.dram.rank1.pwrStateTime::PRE_PDN            0                       # Time in different power states
system.mem_ctrls.dram.rank1.pwrStateTime::ACT  42747514500                       # Time in different power states
system.mem_ctrls.dram.rank1.pwrStateTime::ACT_PDN            0                       # Time in different power states
system.mem_ctrls.power_state.pwrStateResidencyTicks::UNDEFINED  84122231000                       # Cumulative time (in ticks) in various power states
system.membus.trans_dist::ReadResp              68759                       # Transaction distribution
system.membus.trans_dist::WritebackDirty       118925                       # Transaction distribution
system.membus.trans_dist::CleanEvict            58216                       # Transaction distribution
system.membus.trans_dist::ReadExReq            141522                       # Transaction distribution
system.membus.trans_dist::ReadExResp           141522                       # Transaction distribution
system.membus.trans_dist::ReadSharedReq         68759                       # Transaction distribution
system.membus.pkt_count_system.l2.mem_side_port::system.mem_ctrls.port       597703                       # Packet count per connected requestor and responder (bytes)
system.membus.pkt_count::total                 597703                       # Packet count per connected requestor and responder (bytes)
system.membus.pkt_size_system.l2.mem_side_port::system.mem_ctrls.port     21069184                       # Cumulative packet size per connected requestor and responder (bytes)
system.membus.pkt_size::total                21069184                       # Cumulative packet size per connected requestor and responder (bytes)
system.membus.snoops                                0                       # Total snoops (count)
system.membus.snoopTraffic                          0                       # Total snoop traffic (bytes)
system.membus.snoop_fanout::samples            210281                       # Request fanout histogram
system.membus.snoop_fanout::mean                    0                       # Request fanout histogram
system.membus.snoop_fanout::stdev                   0                       # Request fanout histogram
system.membus.snoop_fanout::underflows              0      0.00%      0.00% # Request fanout histogram
system.membus.snoop_fanout::0                  210281    100.00%    100.00% # Request fanout histogram
system.membus.snoop_fanout::1                       0      0.00%    100.00% # Request fanout histogram
system.membus.snoop_fanout::overflows               0      0.00%    100.00% # Request fanout histogram
system.membus.snoop_fanout::min_value               0                       # Request fanout histogram
system.membus.snoop_fanout::max_value               0                       # Request fanout histogram
system.membus.snoop_fanout::total              210281                       # Request fanout histogram
system.membus.power_state.pwrStateResidencyTicks::UNDEFINED  84122231000                       # Cumulative time (in ticks) in various power states
system.membus.reqLayer0.occupancy           895620500                       # Layer occupancy (ticks)
system.membus.reqLayer0.utilization               1.1                       # Layer utilization (%)
system.membus.respLayer1.occupancy         1134148750                       # Layer occupancy (ticks)
system.membus.respLayer1.utilization              1.3                       # Layer utilization (%)
system.tol2bus.trans_dist::ReadResp            459166                       # Transaction distribution
system.tol2bus.trans_dist::WritebackDirty       786818                       # Transaction distribution
system.tol2bus.trans_dist::WritebackClean          411                       # Transaction distribution
system.tol2bus.trans_dist::CleanEvict          162183                       # Transaction distribution
system.tol2bus.trans_dist::ReadExReq           313957                       # Transaction distribution
system.tol2bus.trans_dist::ReadExResp          313957                       # Transaction distribution
system.tol2bus.trans_dist::ReadCleanReq           871                       # Transaction distribution
system.tol2bus.trans_dist::ReadSharedReq       458295                       # Transaction distribution
system.tol2bus.pkt_count_system.cpu.icache.mem_side_port::system.l2.cpu_side_port         2153                       # Packet count per connected requestor and responder (bytes)
system.tol2bus.pkt_count_system.cpu.dcache.mem_side_port::system.l2.cpu_side_port      2315731                       # Packet count per connected requestor and responder (bytes)
system.tol2bus.pkt_count::total               2317884                       # Packet count per connected requestor and responder (bytes)
system.tol2bus.pkt_size_system.cpu.icache.mem_side_port::system.l2.cpu_side_port        82048                       # Cumulative packet size per connected requestor and responder (bytes)
system.tol2bus.pkt_size_system.cpu.dcache.mem_side_port::system.l2.cpu_side_port     92169280                       # Cumulative packet size per connected requestor and responder (bytes)
system.tol2bus.pkt_size::total               92251328                       # Cumulative packet size per connected requestor and responder (bytes)
system.tol2bus.snoops                          177774                       # Total snoops (count)
system.tol2bus.snoopTraffic                   7611200                       # Total snoop traffic (bytes)
system.tol2bus.snoop_fanout::samples           950897                       # Request fanout histogram
system.tol2bus.snoop_fanout::mean            0.000725                       # Request fanout histogram
system.tol2bus.snoop_fanout::stdev           0.026908                       # Request fanout histogram
system.tol2bus.snoop_fanout::underflows             0      0.00%      0.00% # Request fanout histogram
system.tol2bus.snoop_fanout::0                 950208     99.93%     99.93% # Request fanout histogram
system.tol2bus.snoop_fanout::1                    689      0.07%    100.00% # Request fanout histogram
system.tol2bus.snoop_fanout::2                      0      0.00%    100.00% # Request fanout histogram
system.tol2bus.snoop_fanout::overflows              0      0.00%    100.00% # Request fanout histogram
system.tol2bus.snoop_fanout::min_value              0                       # Request fanout histogram
system.tol2bus.snoop_fanout::max_value              1                       # Request fanout histogram
system.tol2bus.snoop_fanout::total             950897                       # Request fanout histogram
system.tol2bus.power_state.pwrStateResidencyTicks::UNDEFINED  84122231000                       # Cumulative time (in ticks) in various power states
system.tol2bus.reqLayer0.occupancy         1440684500                       # Layer occupancy (ticks)
system.tol2bus.reqLayer0.utilization              1.7                       # Layer utilization (%)
system.tol2bus.respLayer0.occupancy           1306500                       # Layer occupancy (ticks)
system.tol2bus.respLayer0.utilization             0.0                       # Layer utilization (%)
system.tol2bus.respLayer1.occupancy        1158378998                       # Layer occupancy (ticks)
system.tol2bus.respLayer1.utilization             1.4                       # Layer utilization (%)
system.voltage_domain.voltage                       1                       # Voltage in Volts

---------- End Simulation Statistics   ----------
