
---------- Begin Simulation Statistics ----------
final_tick                                63181896000                       # Number of ticks from beginning of simulation (restored from checkpoints and never reset)
host_inst_rate                                  78811                       # Simulator instruction rate (inst/s)
host_mem_usage                                 671004                       # Number of bytes of host memory used
host_op_rate                                    79481                       # Simulator op (including micro ops) rate (op/s)
host_seconds                                  1268.85                       # Real time elapsed on the host
host_tick_rate                               49794490                       # Simulator tick rate (ticks/s)
sim_freq                                 1000000000000                       # Frequency of simulated ticks
sim_insts                                   100000001                       # Number of instructions simulated
sim_ops                                     100849488                       # Number of ops (including micro ops) simulated
sim_seconds                                  0.063182                       # Number of seconds simulated
sim_ticks                                 63181896000                       # Number of ticks simulated
system.cpu.committedInsts                   100000001                       # Number of instructions committed
system.cpu.committedOps                     100849488                       # Number of ops (including micro ops) committed
system.cpu.cpi                               1.263638                       # CPI: cycles per instruction
system.cpu.discardedOps                        931985                       # Number of ops (including micro ops) which were discarded before commit
system.cpu.idleCycles                         3275055                       # Total number of cycles that the object has spent stopped
system.cpu.ipc                               0.791366                       # IPC: instructions per cycle
system.cpu.numCycles                        126363792                       # number of cpu cycles simulated
system.cpu.numFetchSuspends                         0                       # Number of times Execute suspended instruction fetching
system.cpu.numWorkItemsCompleted                    0                       # number of work items this cpu completed
system.cpu.numWorkItemsStarted                      0                       # number of work items this cpu started
system.cpu.op_class_0::No_OpClass                   0      0.00%      0.00% # Class of committed instruction
system.cpu.op_class_0::IntAlu                48066702     47.66%     47.66% # Class of committed instruction
system.cpu.op_class_0::IntMult                 194948      0.19%     47.86% # Class of committed instruction
system.cpu.op_class_0::IntDiv                  120929      0.12%     47.98% # Class of committed instruction
system.cpu.op_class_0::FloatAdd                     0      0.00%     47.98% # Class of committed instruction
system.cpu.op_class_0::FloatCmp                     0      0.00%     47.98% # Class of committed instruction
system.cpu.op_class_0::FloatCvt                     0      0.00%     47.98% # Class of committed instruction
system.cpu.op_class_0::FloatMult                    0      0.00%     47.98% # Class of committed instruction
system.cpu.op_class_0::FloatMultAcc                 0      0.00%     47.98% # Class of committed instruction
system.cpu.op_class_0::FloatDiv                     0      0.00%     47.98% # Class of committed instruction
system.cpu.op_class_0::FloatMisc                    0      0.00%     47.98% # Class of committed instruction
system.cpu.op_class_0::FloatSqrt                    0      0.00%     47.98% # Class of committed instruction
system.cpu.op_class_0::SimdAdd                      0      0.00%     47.98% # Class of committed instruction
system.cpu.op_class_0::SimdAddAcc                   0      0.00%     47.98% # Class of committed instruction
system.cpu.op_class_0::SimdAlu                      0      0.00%     47.98% # Class of committed instruction
system.cpu.op_class_0::SimdCmp                      0      0.00%     47.98% # Class of committed instruction
system.cpu.op_class_0::SimdCvt                      0      0.00%     47.98% # Class of committed instruction
system.cpu.op_class_0::SimdMisc                     0      0.00%     47.98% # Class of committed instruction
system.cpu.op_class_0::SimdMult                     0      0.00%     47.98% # Class of committed instruction
system.cpu.op_class_0::SimdMultAcc                  0      0.00%     47.98% # Class of committed instruction
system.cpu.op_class_0::SimdShift                    0      0.00%     47.98% # Class of committed instruction
system.cpu.op_class_0::SimdShiftAcc                 0      0.00%     47.98% # Class of committed instruction
system.cpu.op_class_0::SimdDiv                      0      0.00%     47.98% # Class of committed instruction
system.cpu.op_class_0::SimdSqrt                     0      0.00%     47.98% # Class of committed instruction
system.cpu.op_class_0::SimdFloatAdd            329025      0.33%     48.30% # Class of committed instruction
system.cpu.op_class_0::SimdFloatAlu                 0      0.00%     48.30% # Class of committed instruction
system.cpu.op_class_0::SimdFloatCmp            312189      0.31%     48.61% # Class of committed instruction
system.cpu.op_class_0::SimdFloatCvt            190940      0.19%     48.80% # Class of committed instruction
system.cpu.op_class_0::SimdFloatDiv             63386      0.06%     48.86% # Class of committed instruction
system.cpu.op_class_0::SimdFloatMisc           554902      0.55%     49.41% # Class of committed instruction
system.cpu.op_class_0::SimdFloatMult            41940      0.04%     49.45% # Class of committed instruction
system.cpu.op_class_0::SimdFloatMultAcc         10949      0.01%     49.47% # Class of committed instruction
system.cpu.op_class_0::SimdFloatSqrt                0      0.00%     49.47% # Class of committed instruction
system.cpu.op_class_0::SimdReduceAdd                0      0.00%     49.47% # Class of committed instruction
system.cpu.op_class_0::SimdReduceAlu                0      0.00%     49.47% # Class of committed instruction
system.cpu.op_class_0::SimdReduceCmp                0      0.00%     49.47% # Class of committed instruction
system.cpu.op_class_0::SimdFloatReduceAdd            0      0.00%     49.47% # Class of committed instruction
system.cpu.op_class_0::SimdFloatReduceCmp            0      0.00%     49.47% # Class of committed instruction
system.cpu.op_class_0::SimdAes                      0      0.00%     49.47% # Class of committed instruction
system.cpu.op_class_0::SimdAesMix                   0      0.00%     49.47% # Class of committed instruction
system.cpu.op_class_0::SimdSha1Hash                 0      0.00%     49.47% # Class of committed instruction
system.cpu.op_class_0::SimdSha1Hash2                0      0.00%     49.47% # Class of committed instruction
system.cpu.op_class_0::SimdSha256Hash               0      0.00%     49.47% # Class of committed instruction
system.cpu.op_class_0::SimdSha256Hash2              0      0.00%     49.47% # Class of committed instruction
system.cpu.op_class_0::SimdShaSigma2                0      0.00%     49.47% # Class of committed instruction
system.cpu.op_class_0::SimdShaSigma3                0      0.00%     49.47% # Class of committed instruction
system.cpu.op_class_0::SimdPredAlu                  0      0.00%     49.47% # Class of committed instruction
system.cpu.op_class_0::MemRead               43775341     43.41%     92.87% # Class of committed instruction
system.cpu.op_class_0::MemWrite               7188237      7.13%    100.00% # Class of committed instruction
system.cpu.op_class_0::FloatMemRead                 0      0.00%    100.00% # Class of committed instruction
system.cpu.op_class_0::FloatMemWrite                0      0.00%    100.00% # Class of committed instruction
system.cpu.op_class_0::IprAccess                    0      0.00%    100.00% # Class of committed instruction
system.cpu.op_class_0::InstPrefetch                 0      0.00%    100.00% # Class of committed instruction
system.cpu.op_class_0::total                100849488                       # Class of committed instruction
system.cpu.tickCycles                       123088737                       # Number of cycles that the object actually ticked
system.cpu.workload.numSyscalls                    32                       # Number of system calls
system.membus.snoop_filter.hit_multi_requests            0                       # Number of requests hitting in the snoop filter with multiple (>1) holders of the requested data.
system.membus.snoop_filter.hit_multi_snoops            0                       # Number of snoops hitting in the snoop filter with multiple (>1) holders of the requested data.
system.membus.snoop_filter.hit_single_requests            0                       # Number of requests hitting in the snoop filter with a single holder of the requested data.
system.membus.snoop_filter.hit_single_snoops            0                       # Number of snoops hitting in the snoop filter with a single holder of the requested data.
system.membus.snoop_filter.tot_requests          6042                       # Total number of requests made to the snoop filter.
system.membus.snoop_filter.tot_snoops               0                       # Total number of snoops made to the snoop filter.
system.tol2bus.snoop_filter.hit_multi_requests          125                       # Number of requests hitting in the snoop filter with multiple (>1) holders of the requested data.
system.tol2bus.snoop_filter.hit_multi_snoops            0                       # Number of snoops hitting in the snoop filter with multiple (>1) holders of the requested data.
system.tol2bus.snoop_filter.hit_single_requests        24554                       # Number of requests hitting in the snoop filter with a single holder of the requested data.
system.tol2bus.snoop_filter.hit_single_snoops            0                       # Number of snoops hitting in the snoop filter with a single holder of the requested data.
system.tol2bus.snoop_filter.tot_requests        51656                       # Total number of requests made to the snoop filter.
system.tol2bus.snoop_filter.tot_snoops              0                       # Total number of snoops made to the snoop filter.
system.clk_domain.clock                          1000                       # Clock period in ticks
system.cpu.branchPred.lookups                 6677690                       # Number of BP lookups
system.cpu.branchPred.condPredicted           5511995                       # Number of conditional branches predicted
system.cpu.branchPred.condIncorrect            364280                       # Number of conditional branches incorrect
system.cpu.branchPred.BTBLookups              4626335                       # Number of BTB lookups
system.cpu.branchPred.BTBHits                 4620231                       # Number of BTB hits
system.cpu.branchPred.BTBHitPct             99.868060                       # BTB Hit Percentage
system.cpu.branchPred.RASUsed                  188741                       # Number of times the RAS was used to get a target.
system.cpu.branchPred.RASIncorrect                220                       # Number of incorrect RAS predictions.
system.cpu.branchPred.indirectLookups          672832                       # Number of indirect predictor lookups.
system.cpu.branchPred.indirectHits                160                       # Number of indirect target hits.
system.cpu.branchPred.indirectMisses           672672                       # Number of indirect misses.
system.cpu.branchPred.indirectMispredicted          186                       # Number of mispredicted indirect branches.
system.cpu.dcache.demand_hits::.cpu.data     50060388                       # number of demand (read+write) hits
system.cpu.dcache.demand_hits::total         50060388                       # number of demand (read+write) hits
system.cpu.dcache.overall_hits::.cpu.data     50070459                       # number of overall hits
system.cpu.dcache.overall_hits::total        50070459                       # number of overall hits
system.cpu.dcache.demand_misses::.cpu.data        26884                       # number of demand (read+write) misses
system.cpu.dcache.demand_misses::total          26884                       # number of demand (read+write) misses
system.cpu.dcache.overall_misses::.cpu.data        26981                       # number of overall misses
system.cpu.dcache.overall_misses::total         26981                       # number of overall misses
system.cpu.dcache.demand_miss_latency::.cpu.data    791610000                       # number of demand (read+write) miss cycles
system.cpu.dcache.demand_miss_latency::total    791610000                       # number of demand (read+write) miss cycles
system.cpu.dcache.overall_miss_latency::.cpu.data    791610000                       # number of overall miss cycles
system.cpu.dcache.overall_miss_latency::total    791610000                       # number of overall miss cycles
system.cpu.dcache.demand_accesses::.cpu.data     50087272                       # number of demand (read+write) accesses
system.cpu.dcache.demand_accesses::total     50087272                       # number of demand (read+write) accesses
system.cpu.dcache.overall_accesses::.cpu.data     50097440                       # number of overall (read+write) accesses
system.cpu.dcache.overall_accesses::total     50097440                       # number of overall (read+write) accesses
system.cpu.dcache.demand_miss_rate::.cpu.data     0.000537                       # miss rate for demand accesses
system.cpu.dcache.demand_miss_rate::total     0.000537                       # miss rate for demand accesses
system.cpu.dcache.overall_miss_rate::.cpu.data     0.000539                       # miss rate for overall accesses
system.cpu.dcache.overall_miss_rate::total     0.000539                       # miss rate for overall accesses
system.cpu.dcache.demand_avg_miss_latency::.cpu.data 29445.395031                       # average overall miss latency
system.cpu.dcache.demand_avg_miss_latency::total 29445.395031                       # average overall miss latency
system.cpu.dcache.overall_avg_miss_latency::.cpu.data 29339.535228                       # average overall miss latency
system.cpu.dcache.overall_avg_miss_latency::total 29339.535228                       # average overall miss latency
system.cpu.dcache.blocked_cycles::no_mshrs          586                       # number of cycles access was blocked
system.cpu.dcache.blocked_cycles::no_targets            0                       # number of cycles access was blocked
system.cpu.dcache.blocked::no_mshrs                 5                       # number of cycles access was blocked
system.cpu.dcache.blocked::no_targets               0                       # number of cycles access was blocked
system.cpu.dcache.avg_blocked_cycles::no_mshrs   117.200000                       # average number of cycles each access was blocked
system.cpu.dcache.avg_blocked_cycles::no_targets          nan                       # average number of cycles each access was blocked
system.cpu.dcache.writebacks::.writebacks        19742                       # number of writebacks
system.cpu.dcache.writebacks::total             19742                       # number of writebacks
system.cpu.dcache.demand_mshr_hits::.cpu.data         4359                       # number of demand (read+write) MSHR hits
system.cpu.dcache.demand_mshr_hits::total         4359                       # number of demand (read+write) MSHR hits
system.cpu.dcache.overall_mshr_hits::.cpu.data         4359                       # number of overall MSHR hits
system.cpu.dcache.overall_mshr_hits::total         4359                       # number of overall MSHR hits
system.cpu.dcache.demand_mshr_misses::.cpu.data        22525                       # number of demand (read+write) MSHR misses
system.cpu.dcache.demand_mshr_misses::total        22525                       # number of demand (read+write) MSHR misses
system.cpu.dcache.overall_mshr_misses::.cpu.data        22614                       # number of overall MSHR misses
system.cpu.dcache.overall_mshr_misses::total        22614                       # number of overall MSHR misses
system.cpu.dcache.demand_mshr_miss_latency::.cpu.data    555342500                       # number of demand (read+write) MSHR miss cycles
system.cpu.dcache.demand_mshr_miss_latency::total    555342500                       # number of demand (read+write) MSHR miss cycles
system.cpu.dcache.overall_mshr_miss_latency::.cpu.data    562660000                       # number of overall MSHR miss cycles
system.cpu.dcache.overall_mshr_miss_latency::total    562660000                       # number of overall MSHR miss cycles
system.cpu.dcache.demand_mshr_miss_rate::.cpu.data     0.000450                       # mshr miss rate for demand accesses
system.cpu.dcache.demand_mshr_miss_rate::total     0.000450                       # mshr miss rate for demand accesses
system.cpu.dcache.overall_mshr_miss_rate::.cpu.data     0.000451                       # mshr miss rate for overall accesses
system.cpu.dcache.overall_mshr_miss_rate::total     0.000451                       # mshr miss rate for overall accesses
system.cpu.dcache.demand_avg_mshr_miss_latency::.cpu.data 24654.495006                       # average overall mshr miss latency
system.cpu.dcache.demand_avg_mshr_miss_latency::total 24654.495006                       # average overall mshr miss latency
system.cpu.dcache.overall_avg_mshr_miss_latency::.cpu.data 24881.047139                       # average overall mshr miss latency
system.cpu.dcache.overall_avg_mshr_miss_latency::total 24881.047139                       # average overall mshr miss latency
system.cpu.dcache.replacements                  20589                       # number of replacements
system.cpu.dcache.ReadReq_hits::.cpu.data     42956334                       # number of ReadReq hits
system.cpu.dcache.ReadReq_hits::total        42956334                       # number of ReadReq hits
system.cpu.dcache.ReadReq_misses::.cpu.data         4399                       # number of ReadReq misses
system.cpu.dcache.ReadReq_misses::total          4399                       # number of ReadReq misses
system.cpu.dcache.ReadReq_miss_latency::.cpu.data    103234500                       # number of ReadReq miss cycles
system.cpu.dcache.ReadReq_miss_latency::total    103234500                       # number of ReadReq miss cycles
system.cpu.dcache.ReadReq_accesses::.cpu.data     42960733                       # number of ReadReq accesses(hits+misses)
system.cpu.dcache.ReadReq_accesses::total     42960733                       # number of ReadReq accesses(hits+misses)
system.cpu.dcache.ReadReq_miss_rate::.cpu.data     0.000102                       # miss rate for ReadReq accesses
system.cpu.dcache.ReadReq_miss_rate::total     0.000102                       # miss rate for ReadReq accesses
system.cpu.dcache.ReadReq_avg_miss_latency::.cpu.data 23467.719936                       # average ReadReq miss latency
system.cpu.dcache.ReadReq_avg_miss_latency::total 23467.719936                       # average ReadReq miss latency
system.cpu.dcache.ReadReq_mshr_hits::.cpu.data           27                       # number of ReadReq MSHR hits
system.cpu.dcache.ReadReq_mshr_hits::total           27                       # number of ReadReq MSHR hits
system.cpu.dcache.ReadReq_mshr_misses::.cpu.data         4372                       # number of ReadReq MSHR misses
system.cpu.dcache.ReadReq_mshr_misses::total         4372                       # number of ReadReq MSHR misses
system.cpu.dcache.ReadReq_mshr_miss_latency::.cpu.data     96943500                       # number of ReadReq MSHR miss cycles
system.cpu.dcache.ReadReq_mshr_miss_latency::total     96943500                       # number of ReadReq MSHR miss cycles
system.cpu.dcache.ReadReq_mshr_miss_rate::.cpu.data     0.000102                       # mshr miss rate for ReadReq accesses
system.cpu.dcache.ReadReq_mshr_miss_rate::total     0.000102                       # mshr miss rate for ReadReq accesses
system.cpu.dcache.ReadReq_avg_mshr_miss_latency::.cpu.data 22173.719122                       # average ReadReq mshr miss latency
system.cpu.dcache.ReadReq_avg_mshr_miss_latency::total 22173.719122                       # average ReadReq mshr miss latency
system.cpu.dcache.WriteReq_hits::.cpu.data      7104054                       # number of WriteReq hits
system.cpu.dcache.WriteReq_hits::total        7104054                       # number of WriteReq hits
system.cpu.dcache.WriteReq_misses::.cpu.data        22485                       # number of WriteReq misses
system.cpu.dcache.WriteReq_misses::total        22485                       # number of WriteReq misses
system.cpu.dcache.WriteReq_miss_latency::.cpu.data    688375500                       # number of WriteReq miss cycles
system.cpu.dcache.WriteReq_miss_latency::total    688375500                       # number of WriteReq miss cycles
system.cpu.dcache.WriteReq_accesses::.cpu.data      7126539                       # number of WriteReq accesses(hits+misses)
system.cpu.dcache.WriteReq_accesses::total      7126539                       # number of WriteReq accesses(hits+misses)
system.cpu.dcache.WriteReq_miss_rate::.cpu.data     0.003155                       # miss rate for WriteReq accesses
system.cpu.dcache.WriteReq_miss_rate::total     0.003155                       # miss rate for WriteReq accesses
system.cpu.dcache.WriteReq_avg_miss_latency::.cpu.data 30614.876584                       # average WriteReq miss latency
system.cpu.dcache.WriteReq_avg_miss_latency::total 30614.876584                       # average WriteReq miss latency
system.cpu.dcache.WriteReq_mshr_hits::.cpu.data         4332                       # number of WriteReq MSHR hits
system.cpu.dcache.WriteReq_mshr_hits::total         4332                       # number of WriteReq MSHR hits
system.cpu.dcache.WriteReq_mshr_misses::.cpu.data        18153                       # number of WriteReq MSHR misses
system.cpu.dcache.WriteReq_mshr_misses::total        18153                       # number of WriteReq MSHR misses
system.cpu.dcache.WriteReq_mshr_miss_latency::.cpu.data    458399000                       # number of WriteReq MSHR miss cycles
system.cpu.dcache.WriteReq_mshr_miss_latency::total    458399000                       # number of WriteReq MSHR miss cycles
system.cpu.dcache.WriteReq_mshr_miss_rate::.cpu.data     0.002547                       # mshr miss rate for WriteReq accesses
system.cpu.dcache.WriteReq_mshr_miss_rate::total     0.002547                       # mshr miss rate for WriteReq accesses
system.cpu.dcache.WriteReq_avg_mshr_miss_latency::.cpu.data 25251.969371                       # average WriteReq mshr miss latency
system.cpu.dcache.WriteReq_avg_mshr_miss_latency::total 25251.969371                       # average WriteReq mshr miss latency
system.cpu.dcache.SoftPFReq_hits::.cpu.data        10071                       # number of SoftPFReq hits
system.cpu.dcache.SoftPFReq_hits::total         10071                       # number of SoftPFReq hits
system.cpu.dcache.SoftPFReq_misses::.cpu.data           97                       # number of SoftPFReq misses
system.cpu.dcache.SoftPFReq_misses::total           97                       # number of SoftPFReq misses
system.cpu.dcache.SoftPFReq_accesses::.cpu.data        10168                       # number of SoftPFReq accesses(hits+misses)
system.cpu.dcache.SoftPFReq_accesses::total        10168                       # number of SoftPFReq accesses(hits+misses)
system.cpu.dcache.SoftPFReq_miss_rate::.cpu.data     0.009540                       # miss rate for SoftPFReq accesses
system.cpu.dcache.SoftPFReq_miss_rate::total     0.009540                       # miss rate for SoftPFReq accesses
system.cpu.dcache.SoftPFReq_mshr_misses::.cpu.data           89                       # number of SoftPFReq MSHR misses
system.cpu.dcache.SoftPFReq_mshr_misses::total           89                       # number of SoftPFReq MSHR misses
system.cpu.dcache.SoftPFReq_mshr_miss_latency::.cpu.data      7317500                       # number of SoftPFReq MSHR miss cycles
system.cpu.dcache.SoftPFReq_mshr_miss_latency::total      7317500                       # number of SoftPFReq MSHR miss cycles
system.cpu.dcache.SoftPFReq_mshr_miss_rate::.cpu.data     0.008753                       # mshr miss rate for SoftPFReq accesses
system.cpu.dcache.SoftPFReq_mshr_miss_rate::total     0.008753                       # mshr miss rate for SoftPFReq accesses
system.cpu.dcache.SoftPFReq_avg_mshr_miss_latency::.cpu.data 82219.101124                       # average SoftPFReq mshr miss latency
system.cpu.dcache.SoftPFReq_avg_mshr_miss_latency::total 82219.101124                       # average SoftPFReq mshr miss latency
system.cpu.dcache.LoadLockedReq_hits::.cpu.data         1150                       # number of LoadLockedReq hits
system.cpu.dcache.LoadLockedReq_hits::total         1150                       # number of LoadLockedReq hits
system.cpu.dcache.LoadLockedReq_misses::.cpu.data           23                       # number of LoadLockedReq misses
system.cpu.dcache.LoadLockedReq_misses::total           23                       # number of LoadLockedReq misses
system.cpu.dcache.LoadLockedReq_miss_latency::.cpu.data       372000                       # number of LoadLockedReq miss cycles
system.cpu.dcache.LoadLockedReq_miss_latency::total       372000                       # number of LoadLockedReq miss cycles
system.cpu.dcache.LoadLockedReq_accesses::.cpu.data         1173                       # number of LoadLockedReq accesses(hits+misses)
system.cpu.dcache.LoadLockedReq_accesses::total         1173                       # number of LoadLockedReq accesses(hits+misses)
system.cpu.dcache.LoadLockedReq_miss_rate::.cpu.data     0.019608                       # miss rate for LoadLockedReq accesses
system.cpu.dcache.LoadLockedReq_miss_rate::total     0.019608                       # miss rate for LoadLockedReq accesses
system.cpu.dcache.LoadLockedReq_avg_miss_latency::.cpu.data 16173.913043                       # average LoadLockedReq miss latency
system.cpu.dcache.LoadLockedReq_avg_miss_latency::total 16173.913043                       # average LoadLockedReq miss latency
system.cpu.dcache.LoadLockedReq_mshr_misses::.cpu.data           23                       # number of LoadLockedReq MSHR misses
system.cpu.dcache.LoadLockedReq_mshr_misses::total           23                       # number of LoadLockedReq MSHR misses
system.cpu.dcache.LoadLockedReq_mshr_miss_latency::.cpu.data       349000                       # number of LoadLockedReq MSHR miss cycles
system.cpu.dcache.LoadLockedReq_mshr_miss_latency::total       349000                       # number of LoadLockedReq MSHR miss cycles
system.cpu.dcache.LoadLockedReq_mshr_miss_rate::.cpu.data     0.019608                       # mshr miss rate for LoadLockedReq accesses
system.cpu.dcache.LoadLockedReq_mshr_miss_rate::total     0.019608                       # mshr miss rate for LoadLockedReq accesses
system.cpu.dcache.LoadLockedReq_avg_mshr_miss_latency::.cpu.data 15173.913043                       # average LoadLockedReq mshr miss latency
system.cpu.dcache.LoadLockedReq_avg_mshr_miss_latency::total 15173.913043                       # average LoadLockedReq mshr miss latency
system.cpu.dcache.StoreCondReq_hits::.cpu.data         1173                       # number of StoreCondReq hits
system.cpu.dcache.StoreCondReq_hits::total         1173                       # number of StoreCondReq hits
system.cpu.dcache.StoreCondReq_accesses::.cpu.data         1173                       # number of StoreCondReq accesses(hits+misses)
system.cpu.dcache.StoreCondReq_accesses::total         1173                       # number of StoreCondReq accesses(hits+misses)
system.cpu.dcache.power_state.pwrStateResidencyTicks::UNDEFINED  63181896000                       # Cumulative time (in ticks) in various power states
system.cpu.dcache.tags.tagsinuse          2017.685298                       # Cycle average of tags in use
system.cpu.dcache.tags.total_refs            50095419                       # Total number of references to valid blocks.
system.cpu.dcache.tags.sampled_refs             22637                       # Sample count of references to valid blocks.
system.cpu.dcache.tags.avg_refs           2212.988426                       # Average number of references to valid blocks.
system.cpu.dcache.tags.warmup_cycle            176500                       # Cycle when the warmup percentage was hit.
system.cpu.dcache.tags.occ_blocks::.cpu.data  2017.685298                       # Average occupied blocks per requestor
system.cpu.dcache.tags.occ_percent::.cpu.data     0.985198                       # Average percentage of cache occupancy
system.cpu.dcache.tags.occ_percent::total     0.985198                       # Average percentage of cache occupancy
system.cpu.dcache.tags.occ_task_id_blocks::1024         2048                       # Occupied blocks per task id
system.cpu.dcache.tags.age_task_id_blocks_1024::2          455                       # Occupied blocks per task id
system.cpu.dcache.tags.age_task_id_blocks_1024::3          718                       # Occupied blocks per task id
system.cpu.dcache.tags.age_task_id_blocks_1024::4          875                       # Occupied blocks per task id
system.cpu.dcache.tags.occ_task_id_percent::1024            1                       # Percentage of cache occupancy per task id
system.cpu.dcache.tags.tag_accesses         400820925                       # Number of tag accesses
system.cpu.dcache.tags.data_accesses        400820925                       # Number of data accesses
system.cpu.dcache.tags.power_state.pwrStateResidencyTicks::UNDEFINED  63181896000                       # Cumulative time (in ticks) in various power states
system.cpu.dtb.instHits                             0                       # ITB inst hits
system.cpu.dtb.instMisses                           0                       # ITB inst misses
system.cpu.dtb.readHits                             0                       # DTB read hits
system.cpu.dtb.readMisses                           0                       # DTB read misses
system.cpu.dtb.writeHits                            0                       # DTB write hits
system.cpu.dtb.writeMisses                          0                       # DTB write misses
system.cpu.dtb.inserts                              0                       # Number of times an entry is inserted into the TLB
system.cpu.dtb.flushTlb                             0                       # Number of times complete TLB was flushed
system.cpu.dtb.flushTlbMva                          0                       # Number of times TLB was flushed by MVA
system.cpu.dtb.flushTlbMvaAsid                      0                       # Number of times TLB was flushed by MVA & ASID
system.cpu.dtb.flushTlbAsid                         0                       # Number of times TLB was flushed by ASID
system.cpu.dtb.flushedEntries                       0                       # Number of entries that have been flushed from TLB
system.cpu.dtb.alignFaults                          0                       # Number of TLB faults due to alignment restrictions
system.cpu.dtb.prefetchFaults                       0                       # Number of TLB faults due to prefetch
system.cpu.dtb.domainFaults                         0                       # Number of TLB faults due to domain restrictions
system.cpu.dtb.permsFaults                          0                       # Number of TLB faults due to permissions restrictions
system.cpu.dtb.readAccesses                         0                       # DTB read accesses
system.cpu.dtb.writeAccesses                        0                       # DTB write accesses
system.cpu.dtb.instAccesses                         0                       # ITB inst accesses
system.cpu.dtb.hits                                 0                       # Total TLB (inst and data) hits
system.cpu.dtb.misses                               0                       # Total TLB (inst and data) misses
system.cpu.dtb.accesses                             0                       # Total TLB (inst and data) accesses
system.cpu.dtb.stage2_mmu.stage2_tlb.instHits            0                       # ITB inst hits
system.cpu.dtb.stage2_mmu.stage2_tlb.instMisses            0                       # ITB inst misses
system.cpu.dtb.stage2_mmu.stage2_tlb.readHits            0                       # DTB read hits
system.cpu.dtb.stage2_mmu.stage2_tlb.readMisses            0                       # DTB read misses
system.cpu.dtb.stage2_mmu.stage2_tlb.writeHits            0                       # DTB write hits
system.cpu.dtb.stage2_mmu.stage2_tlb.writeMisses            0                       # DTB write misses
system.cpu.dtb.stage2_mmu.stage2_tlb.inserts            0                       # Number of times an entry is inserted into the TLB
system.cpu.dtb.stage2_mmu.stage2_tlb.flushTlb            0                       # Number of times complete TLB was flushed
system.cpu.dtb.stage2_mmu.stage2_tlb.flushTlbMva            0                       # Number of times TLB was flushed by MVA
system.cpu.dtb.stage2_mmu.stage2_tlb.flushTlbMvaAsid            0                       # Number of times TLB was flushed by MVA & ASID
system.cpu.dtb.stage2_mmu.stage2_tlb.flushTlbAsid            0                       # Number of times TLB was flushed by ASID
system.cpu.dtb.stage2_mmu.stage2_tlb.flushedEntries            0                       # Number of entries that have been flushed from TLB
system.cpu.dtb.stage2_mmu.stage2_tlb.alignFaults            0                       # Number of TLB faults due to alignment restrictions
system.cpu.dtb.stage2_mmu.stage2_tlb.prefetchFaults            0                       # Number of TLB faults due to prefetch
system.cpu.dtb.stage2_mmu.stage2_tlb.domainFaults            0                       # Number of TLB faults due to domain restrictions
system.cpu.dtb.stage2_mmu.stage2_tlb.permsFaults            0                       # Number of TLB faults due to permissions restrictions
system.cpu.dtb.stage2_mmu.stage2_tlb.readAccesses            0                       # DTB read accesses
system.cpu.dtb.stage2_mmu.stage2_tlb.writeAccesses            0                       # DTB write accesses
system.cpu.dtb.stage2_mmu.stage2_tlb.instAccesses            0                       # ITB inst accesses
system.cpu.dtb.stage2_mmu.stage2_tlb.hits            0                       # Total TLB (inst and data) hits
system.cpu.dtb.stage2_mmu.stage2_tlb.misses            0                       # Total TLB (inst and data) misses
system.cpu.dtb.stage2_mmu.stage2_tlb.accesses            0                       # Total TLB (inst and data) accesses
system.cpu.dtb.stage2_mmu.stage2_tlb.walker.walks            0                       # Table walker walks requested
system.cpu.dtb.stage2_mmu.stage2_tlb.walker.requestOrigin_Requested::Data            0                       # Table walker requests started/completed, data/inst
system.cpu.dtb.stage2_mmu.stage2_tlb.walker.requestOrigin_Requested::Inst            0                       # Table walker requests started/completed, data/inst
system.cpu.dtb.stage2_mmu.stage2_tlb.walker.requestOrigin_Requested::total            0                       # Table walker requests started/completed, data/inst
system.cpu.dtb.stage2_mmu.stage2_tlb.walker.requestOrigin_Completed::Data            0                       # Table walker requests started/completed, data/inst
system.cpu.dtb.stage2_mmu.stage2_tlb.walker.requestOrigin_Completed::Inst            0                       # Table walker requests started/completed, data/inst
system.cpu.dtb.stage2_mmu.stage2_tlb.walker.requestOrigin_Completed::total            0                       # Table walker requests started/completed, data/inst
system.cpu.dtb.stage2_mmu.stage2_tlb.walker.requestOrigin::total            0                       # Table walker requests started/completed, data/inst
system.cpu.dtb.stage2_mmu.stage2_tlb.walker.power_state.pwrStateResidencyTicks::UNDEFINED  63181896000                       # Cumulative time (in ticks) in various power states
system.cpu.dtb.walker.walks                         0                       # Table walker walks requested
system.cpu.dtb.walker.requestOrigin_Requested::Data            0                       # Table walker requests started/completed, data/inst
system.cpu.dtb.walker.requestOrigin_Requested::Inst            0                       # Table walker requests started/completed, data/inst
system.cpu.dtb.walker.requestOrigin_Requested::total            0                       # Table walker requests started/completed, data/inst
system.cpu.dtb.walker.requestOrigin_Completed::Data            0                       # Table walker requests started/completed, data/inst
system.cpu.dtb.walker.requestOrigin_Completed::Inst            0                       # Table walker requests started/completed, data/inst
system.cpu.dtb.walker.requestOrigin_Completed::total            0                       # Table walker requests started/completed, data/inst
system.cpu.dtb.walker.requestOrigin::total            0                       # Table walker requests started/completed, data/inst
system.cpu.dtb.walker.power_state.pwrStateResidencyTicks::UNDEFINED  63181896000                       # Cumulative time (in ticks) in various power states
system.cpu.fetch2.intInstructions            45755418                       # Number of integer instructions successfully decoded
system.cpu.fetch2.fpInstructions                    0                       # Number of floating point instructions successfully decoded
system.cpu.fetch2.vecInstructions                   0                       # Number of SIMD instructions successfully decoded
system.cpu.fetch2.loadInstructions           46724172                       # Number of memory load instructions successfully decoded
system.cpu.fetch2.storeInstructions           7330419                       # Number of memory store instructions successfully decoded
system.cpu.fetch2.amoInstructions                   0                       # Number of memory atomic instructions successfully decoded
system.cpu.icache.demand_hits::.cpu.inst     19656802                       # number of demand (read+write) hits
system.cpu.icache.demand_hits::total         19656802                       # number of demand (read+write) hits
system.cpu.icache.overall_hits::.cpu.inst     19656802                       # number of overall hits
system.cpu.icache.overall_hits::total        19656802                       # number of overall hits
system.cpu.icache.demand_misses::.cpu.inst         4471                       # number of demand (read+write) misses
system.cpu.icache.demand_misses::total           4471                       # number of demand (read+write) misses
system.cpu.icache.overall_misses::.cpu.inst         4471                       # number of overall misses
system.cpu.icache.overall_misses::total          4471                       # number of overall misses
system.cpu.icache.demand_miss_latency::.cpu.inst    167099500                       # number of demand (read+write) miss cycles
system.cpu.icache.demand_miss_latency::total    167099500                       # number of demand (read+write) miss cycles
system.cpu.icache.overall_miss_latency::.cpu.inst    167099500                       # number of overall miss cycles
system.cpu.icache.overall_miss_latency::total    167099500                       # number of overall miss cycles
system.cpu.icache.demand_accesses::.cpu.inst     19661273                       # number of demand (read+write) accesses
system.cpu.icache.demand_accesses::total     19661273                       # number of demand (read+write) accesses
system.cpu.icache.overall_accesses::.cpu.inst     19661273                       # number of overall (read+write) accesses
system.cpu.icache.overall_accesses::total     19661273                       # number of overall (read+write) accesses
system.cpu.icache.demand_miss_rate::.cpu.inst     0.000227                       # miss rate for demand accesses
system.cpu.icache.demand_miss_rate::total     0.000227                       # miss rate for demand accesses
system.cpu.icache.overall_miss_rate::.cpu.inst     0.000227                       # miss rate for overall accesses
system.cpu.icache.overall_miss_rate::total     0.000227                       # miss rate for overall accesses
system.cpu.icache.demand_avg_miss_latency::.cpu.inst 37374.077388                       # average overall miss latency
system.cpu.icache.demand_avg_miss_latency::total 37374.077388                       # average overall miss latency
system.cpu.icache.overall_avg_miss_latency::.cpu.inst 37374.077388                       # average overall miss latency
system.cpu.icache.overall_avg_miss_latency::total 37374.077388                       # average overall miss latency
system.cpu.icache.blocked_cycles::no_mshrs            0                       # number of cycles access was blocked
system.cpu.icache.blocked_cycles::no_targets            0                       # number of cycles access was blocked
system.cpu.icache.blocked::no_mshrs                 0                       # number of cycles access was blocked
system.cpu.icache.blocked::no_targets               0                       # number of cycles access was blocked
system.cpu.icache.avg_blocked_cycles::no_mshrs          nan                       # average number of cycles each access was blocked
system.cpu.icache.avg_blocked_cycles::no_targets          nan                       # average number of cycles each access was blocked
system.cpu.icache.writebacks::.writebacks         3959                       # number of writebacks
system.cpu.icache.writebacks::total              3959                       # number of writebacks
system.cpu.icache.demand_mshr_misses::.cpu.inst         4471                       # number of demand (read+write) MSHR misses
system.cpu.icache.demand_mshr_misses::total         4471                       # number of demand (read+write) MSHR misses
system.cpu.icache.overall_mshr_misses::.cpu.inst         4471                       # number of overall MSHR misses
system.cpu.icache.overall_mshr_misses::total         4471                       # number of overall MSHR misses
system.cpu.icache.demand_mshr_miss_latency::.cpu.inst    162628500                       # number of demand (read+write) MSHR miss cycles
system.cpu.icache.demand_mshr_miss_latency::total    162628500                       # number of demand (read+write) MSHR miss cycles
system.cpu.icache.overall_mshr_miss_latency::.cpu.inst    162628500                       # number of overall MSHR miss cycles
system.cpu.icache.overall_mshr_miss_latency::total    162628500                       # number of overall MSHR miss cycles
system.cpu.icache.demand_mshr_miss_rate::.cpu.inst     0.000227                       # mshr miss rate for demand accesses
system.cpu.icache.demand_mshr_miss_rate::total     0.000227                       # mshr miss rate for demand accesses
system.cpu.icache.overall_mshr_miss_rate::.cpu.inst     0.000227                       # mshr miss rate for overall accesses
system.cpu.icache.overall_mshr_miss_rate::total     0.000227                       # mshr miss rate for overall accesses
system.cpu.icache.demand_avg_mshr_miss_latency::.cpu.inst 36374.077388                       # average overall mshr miss latency
system.cpu.icache.demand_avg_mshr_miss_latency::total 36374.077388                       # average overall mshr miss latency
system.cpu.icache.overall_avg_mshr_miss_latency::.cpu.inst 36374.077388                       # average overall mshr miss latency
system.cpu.icache.overall_avg_mshr_miss_latency::total 36374.077388                       # average overall mshr miss latency
system.cpu.icache.replacements                   3959                       # number of replacements
system.cpu.icache.ReadReq_hits::.cpu.inst     19656802                       # number of ReadReq hits
system.cpu.icache.ReadReq_hits::total        19656802                       # number of ReadReq hits
system.cpu.icache.ReadReq_misses::.cpu.inst         4471                       # number of ReadReq misses
system.cpu.icache.ReadReq_misses::total          4471                       # number of ReadReq misses
system.cpu.icache.ReadReq_miss_latency::.cpu.inst    167099500                       # number of ReadReq miss cycles
system.cpu.icache.ReadReq_miss_latency::total    167099500                       # number of ReadReq miss cycles
system.cpu.icache.ReadReq_accesses::.cpu.inst     19661273                       # number of ReadReq accesses(hits+misses)
system.cpu.icache.ReadReq_accesses::total     19661273                       # number of ReadReq accesses(hits+misses)
system.cpu.icache.ReadReq_miss_rate::.cpu.inst     0.000227                       # miss rate for ReadReq accesses
system.cpu.icache.ReadReq_miss_rate::total     0.000227                       # miss rate for ReadReq accesses
system.cpu.icache.ReadReq_avg_miss_latency::.cpu.inst 37374.077388                       # average ReadReq miss latency
system.cpu.icache.ReadReq_avg_miss_latency::total 37374.077388                       # average ReadReq miss latency
system.cpu.icache.ReadReq_mshr_misses::.cpu.inst         4471                       # number of ReadReq MSHR misses
system.cpu.icache.ReadReq_mshr_misses::total         4471                       # number of ReadReq MSHR misses
system.cpu.icache.ReadReq_mshr_miss_latency::.cpu.inst    162628500                       # number of ReadReq MSHR miss cycles
system.cpu.icache.ReadReq_mshr_miss_latency::total    162628500                       # number of ReadReq MSHR miss cycles
system.cpu.icache.ReadReq_mshr_miss_rate::.cpu.inst     0.000227                       # mshr miss rate for ReadReq accesses
system.cpu.icache.ReadReq_mshr_miss_rate::total     0.000227                       # mshr miss rate for ReadReq accesses
system.cpu.icache.ReadReq_avg_mshr_miss_latency::.cpu.inst 36374.077388                       # average ReadReq mshr miss latency
system.cpu.icache.ReadReq_avg_mshr_miss_latency::total 36374.077388                       # average ReadReq mshr miss latency
system.cpu.icache.power_state.pwrStateResidencyTicks::UNDEFINED  63181896000                       # Cumulative time (in ticks) in various power states
system.cpu.icache.tags.tagsinuse           511.699689                       # Cycle average of tags in use
system.cpu.icache.tags.total_refs            19661273                       # Total number of references to valid blocks.
system.cpu.icache.tags.sampled_refs              4471                       # Sample count of references to valid blocks.
system.cpu.icache.tags.avg_refs           4397.511295                       # Average number of references to valid blocks.
system.cpu.icache.tags.warmup_cycle             87500                       # Cycle when the warmup percentage was hit.
system.cpu.icache.tags.occ_blocks::.cpu.inst   511.699689                       # Average occupied blocks per requestor
system.cpu.icache.tags.occ_percent::.cpu.inst     0.999413                       # Average percentage of cache occupancy
system.cpu.icache.tags.occ_percent::total     0.999413                       # Average percentage of cache occupancy
system.cpu.icache.tags.occ_task_id_blocks::1024          512                       # Occupied blocks per task id
system.cpu.icache.tags.age_task_id_blocks_1024::2           10                       # Occupied blocks per task id
system.cpu.icache.tags.age_task_id_blocks_1024::4          502                       # Occupied blocks per task id
system.cpu.icache.tags.occ_task_id_percent::1024            1                       # Percentage of cache occupancy per task id
system.cpu.icache.tags.tag_accesses          39327017                       # Number of tag accesses
system.cpu.icache.tags.data_accesses         39327017                       # Number of data accesses
system.cpu.icache.tags.power_state.pwrStateResidencyTicks::UNDEFINED  63181896000                       # Cumulative time (in ticks) in various power states
system.cpu.itb.instHits                             0                       # ITB inst hits
system.cpu.itb.instMisses                           0                       # ITB inst misses
system.cpu.itb.readHits                             0                       # DTB read hits
system.cpu.itb.readMisses                           0                       # DTB read misses
system.cpu.itb.writeHits                            0                       # DTB write hits
system.cpu.itb.writeMisses                          0                       # DTB write misses
system.cpu.itb.inserts                              0                       # Number of times an entry is inserted into the TLB
system.cpu.itb.flushTlb                             0                       # Number of times complete TLB was flushed
system.cpu.itb.flushTlbMva                          0                       # Number of times TLB was flushed by MVA
system.cpu.itb.flushTlbMvaAsid                      0                       # Number of times TLB was flushed by MVA & ASID
system.cpu.itb.flushTlbAsid                         0                       # Number of times TLB was flushed by ASID
system.cpu.itb.flushedEntries                       0                       # Number of entries that have been flushed from TLB
system.cpu.itb.alignFaults                          0                       # Number of TLB faults due to alignment restrictions
system.cpu.itb.prefetchFaults                       0                       # Number of TLB faults due to prefetch
system.cpu.itb.domainFaults                         0                       # Number of TLB faults due to domain restrictions
system.cpu.itb.permsFaults                          0                       # Number of TLB faults due to permissions restrictions
system.cpu.itb.readAccesses                         0                       # DTB read accesses
system.cpu.itb.writeAccesses                        0                       # DTB write accesses
system.cpu.itb.instAccesses                         0                       # ITB inst accesses
system.cpu.itb.hits                                 0                       # Total TLB (inst and data) hits
system.cpu.itb.misses                               0                       # Total TLB (inst and data) misses
system.cpu.itb.accesses                             0                       # Total TLB (inst and data) accesses
system.cpu.itb.stage2_mmu.stage2_tlb.instHits            0                       # ITB inst hits
system.cpu.itb.stage2_mmu.stage2_tlb.instMisses            0                       # ITB inst misses
system.cpu.itb.stage2_mmu.stage2_tlb.readHits            0                       # DTB read hits
system.cpu.itb.stage2_mmu.stage2_tlb.readMisses            0                       # DTB read misses
system.cpu.itb.stage2_mmu.stage2_tlb.writeHits            0                       # DTB write hits
system.cpu.itb.stage2_mmu.stage2_tlb.writeMisses            0                       # DTB write misses
system.cpu.itb.stage2_mmu.stage2_tlb.inserts            0                       # Number of times an entry is inserted into the TLB
system.cpu.itb.stage2_mmu.stage2_tlb.flushTlb            0                       # Number of times complete TLB was flushed
system.cpu.itb.stage2_mmu.stage2_tlb.flushTlbMva            0                       # Number of times TLB was flushed by MVA
system.cpu.itb.stage2_mmu.stage2_tlb.flushTlbMvaAsid            0                       # Number of times TLB was flushed by MVA & ASID
system.cpu.itb.stage2_mmu.stage2_tlb.flushTlbAsid            0                       # Number of times TLB was flushed by ASID
system.cpu.itb.stage2_mmu.stage2_tlb.flushedEntries            0                       # Number of entries that have been flushed from TLB
system.cpu.itb.stage2_mmu.stage2_tlb.alignFaults            0                       # Number of TLB faults due to alignment restrictions
system.cpu.itb.stage2_mmu.stage2_tlb.prefetchFaults            0                       # Number of TLB faults due to prefetch
system.cpu.itb.stage2_mmu.stage2_tlb.domainFaults            0                       # Number of TLB faults due to domain restrictions
system.cpu.itb.stage2_mmu.stage2_tlb.permsFaults            0                       # Number of TLB faults due to permissions restrictions
system.cpu.itb.stage2_mmu.stage2_tlb.readAccesses            0                       # DTB read accesses
system.cpu.itb.stage2_mmu.stage2_tlb.writeAccesses            0                       # DTB write accesses
system.cpu.itb.stage2_mmu.stage2_tlb.instAccesses            0                       # ITB inst accesses
system.cpu.itb.stage2_mmu.stage2_tlb.hits            0                       # Total TLB (inst and data) hits
system.cpu.itb.stage2_mmu.stage2_tlb.misses            0                       # Total TLB (inst and data) misses
system.cpu.itb.stage2_mmu.stage2_tlb.accesses            0                       # Total TLB (inst and data) accesses
system.cpu.itb.stage2_mmu.stage2_tlb.walker.walks            0                       # Table walker walks requested
system.cpu.itb.stage2_mmu.stage2_tlb.walker.requestOrigin_Requested::Data            0                       # Table walker requests started/completed, data/inst
system.cpu.itb.stage2_mmu.stage2_tlb.walker.requestOrigin_Requested::Inst            0                       # Table walker requests started/completed, data/inst
system.cpu.itb.stage2_mmu.stage2_tlb.walker.requestOrigin_Requested::total            0                       # Table walker requests started/completed, data/inst
system.cpu.itb.stage2_mmu.stage2_tlb.walker.requestOrigin_Completed::Data            0                       # Table walker requests started/completed, data/inst
system.cpu.itb.stage2_mmu.stage2_tlb.walker.requestOrigin_Completed::Inst            0                       # Table walker requests started/completed, data/inst
system.cpu.itb.stage2_mmu.stage2_tlb.walker.requestOrigin_Completed::total            0                       # Table walker requests started/completed, data/inst
system.cpu.itb.stage2_mmu.stage2_tlb.walker.requestOrigin::total            0                       # Table walker requests started/completed, data/inst
system.cpu.itb.stage2_mmu.stage2_tlb.walker.power_state.pwrStateResidencyTicks::UNDEFINED  63181896000                       # Cumulative time (in ticks) in various power states
system.cpu.itb.walker.walks                         0                       # Table walker walks requested
system.cpu.itb.walker.requestOrigin_Requested::Data            0                       # Table walker requests started/completed, data/inst
system.cpu.itb.walker.requestOrigin_Requested::Inst            0                       # Table walker requests started/completed, data/inst
system.cpu.itb.walker.requestOrigin_Requested::total            0                       # Table walker requests started/completed, data/inst
system.cpu.itb.walker.requestOrigin_Completed::Data            0                       # Table walker requests started/completed, data/inst
system.cpu.itb.walker.requestOrigin_Completed::Inst            0                       # Table walker requests started/completed, data/inst
system.cpu.itb.walker.requestOrigin_Completed::total            0                       # Table walker requests started/completed, data/inst
system.cpu.itb.walker.requestOrigin::total            0                       # Table walker requests started/completed, data/inst
system.cpu.itb.walker.power_state.pwrStateResidencyTicks::UNDEFINED  63181896000                       # Cumulative time (in ticks) in various power states
system.cpu.power_state.pwrStateResidencyTicks::ON  63181896000                       # Cumulative time (in ticks) in various power states
system.cpu.thread_0.numInsts                100000001                       # Number of Instructions committed
system.cpu.thread_0.numOps                  100849488                       # Number of Ops committed
system.cpu.thread_0.numMemRefs                      0                       # Number of Memory References
system.cpu_clk_domain.clock                       500                       # Clock period in ticks
system.cpu_voltage_domain.voltage                   1                       # Voltage in Volts
system.l2.demand_hits::.cpu.inst                 2805                       # number of demand (read+write) hits
system.l2.demand_hits::.cpu.data                18252                       # number of demand (read+write) hits
system.l2.demand_hits::total                    21057                       # number of demand (read+write) hits
system.l2.overall_hits::.cpu.inst                2805                       # number of overall hits
system.l2.overall_hits::.cpu.data               18252                       # number of overall hits
system.l2.overall_hits::total                   21057                       # number of overall hits
system.l2.demand_misses::.cpu.inst               1666                       # number of demand (read+write) misses
system.l2.demand_misses::.cpu.data               4385                       # number of demand (read+write) misses
system.l2.demand_misses::total                   6051                       # number of demand (read+write) misses
system.l2.overall_misses::.cpu.inst              1666                       # number of overall misses
system.l2.overall_misses::.cpu.data              4385                       # number of overall misses
system.l2.overall_misses::total                  6051                       # number of overall misses
system.l2.demand_miss_latency::.cpu.inst    126381500                       # number of demand (read+write) miss cycles
system.l2.demand_miss_latency::.cpu.data    337237000                       # number of demand (read+write) miss cycles
system.l2.demand_miss_latency::total        463618500                       # number of demand (read+write) miss cycles
system.l2.overall_miss_latency::.cpu.inst    126381500                       # number of overall miss cycles
system.l2.overall_miss_latency::.cpu.data    337237000                       # number of overall miss cycles
system.l2.overall_miss_latency::total       463618500                       # number of overall miss cycles
system.l2.demand_accesses::.cpu.inst             4471                       # number of demand (read+write) accesses
system.l2.demand_accesses::.cpu.data            22637                       # number of demand (read+write) accesses
system.l2.demand_accesses::total                27108                       # number of demand (read+write) accesses
system.l2.overall_accesses::.cpu.inst            4471                       # number of overall (read+write) accesses
system.l2.overall_accesses::.cpu.data           22637                       # number of overall (read+write) accesses
system.l2.overall_accesses::total               27108                       # number of overall (read+write) accesses
system.l2.demand_miss_rate::.cpu.inst        0.372624                       # miss rate for demand accesses
system.l2.demand_miss_rate::.cpu.data        0.193709                       # miss rate for demand accesses
system.l2.demand_miss_rate::total            0.223218                       # miss rate for demand accesses
system.l2.overall_miss_rate::.cpu.inst       0.372624                       # miss rate for overall accesses
system.l2.overall_miss_rate::.cpu.data       0.193709                       # miss rate for overall accesses
system.l2.overall_miss_rate::total           0.223218                       # miss rate for overall accesses
system.l2.demand_avg_miss_latency::.cpu.inst 75859.243697                       # average overall miss latency
system.l2.demand_avg_miss_latency::.cpu.data 76906.955530                       # average overall miss latency
system.l2.demand_avg_miss_latency::total 76618.492811                       # average overall miss latency
system.l2.overall_avg_miss_latency::.cpu.inst 75859.243697                       # average overall miss latency
system.l2.overall_avg_miss_latency::.cpu.data 76906.955530                       # average overall miss latency
system.l2.overall_avg_miss_latency::total 76618.492811                       # average overall miss latency
system.l2.blocked_cycles::no_mshrs                  0                       # number of cycles access was blocked
system.l2.blocked_cycles::no_targets                0                       # number of cycles access was blocked
system.l2.blocked::no_mshrs                         0                       # number of cycles access was blocked
system.l2.blocked::no_targets                       0                       # number of cycles access was blocked
system.l2.avg_blocked_cycles::no_mshrs            nan                       # average number of cycles each access was blocked
system.l2.avg_blocked_cycles::no_targets          nan                       # average number of cycles each access was blocked
system.l2.demand_mshr_hits::.cpu.data               9                       # number of demand (read+write) MSHR hits
system.l2.demand_mshr_hits::total                   9                       # number of demand (read+write) MSHR hits
system.l2.overall_mshr_hits::.cpu.data              9                       # number of overall MSHR hits
system.l2.overall_mshr_hits::total                  9                       # number of overall MSHR hits
system.l2.demand_mshr_misses::.cpu.inst          1666                       # number of demand (read+write) MSHR misses
system.l2.demand_mshr_misses::.cpu.data          4376                       # number of demand (read+write) MSHR misses
system.l2.demand_mshr_misses::total              6042                       # number of demand (read+write) MSHR misses
system.l2.overall_mshr_misses::.cpu.inst         1666                       # number of overall MSHR misses
system.l2.overall_mshr_misses::.cpu.data         4376                       # number of overall MSHR misses
system.l2.overall_mshr_misses::total             6042                       # number of overall MSHR misses
system.l2.demand_mshr_miss_latency::.cpu.inst    109721500                       # number of demand (read+write) MSHR miss cycles
system.l2.demand_mshr_miss_latency::.cpu.data    292922500                       # number of demand (read+write) MSHR miss cycles
system.l2.demand_mshr_miss_latency::total    402644000                       # number of demand (read+write) MSHR miss cycles
system.l2.overall_mshr_miss_latency::.cpu.inst    109721500                       # number of overall MSHR miss cycles
system.l2.overall_mshr_miss_latency::.cpu.data    292922500                       # number of overall MSHR miss cycles
system.l2.overall_mshr_miss_latency::total    402644000                       # number of overall MSHR miss cycles
system.l2.demand_mshr_miss_rate::.cpu.inst     0.372624                       # mshr miss rate for demand accesses
system.l2.demand_mshr_miss_rate::.cpu.data     0.193312                       # mshr miss rate for demand accesses
system.l2.demand_mshr_miss_rate::total       0.222886                       # mshr miss rate for demand accesses
system.l2.overall_mshr_miss_rate::.cpu.inst     0.372624                       # mshr miss rate for overall accesses
system.l2.overall_mshr_miss_rate::.cpu.data     0.193312                       # mshr miss rate for overall accesses
system.l2.overall_mshr_miss_rate::total      0.222886                       # mshr miss rate for overall accesses
system.l2.demand_avg_mshr_miss_latency::.cpu.inst 65859.243697                       # average overall mshr miss latency
system.l2.demand_avg_mshr_miss_latency::.cpu.data 66938.414077                       # average overall mshr miss latency
system.l2.demand_avg_mshr_miss_latency::total 66640.847402                       # average overall mshr miss latency
system.l2.overall_avg_mshr_miss_latency::.cpu.inst 65859.243697                       # average overall mshr miss latency
system.l2.overall_avg_mshr_miss_latency::.cpu.data 66938.414077                       # average overall mshr miss latency
system.l2.overall_avg_mshr_miss_latency::total 66640.847402                       # average overall mshr miss latency
system.l2.replacements                              0                       # number of replacements
system.l2.WritebackDirty_hits::.writebacks        19742                       # number of WritebackDirty hits
system.l2.WritebackDirty_hits::total            19742                       # number of WritebackDirty hits
system.l2.WritebackDirty_accesses::.writebacks        19742                       # number of WritebackDirty accesses(hits+misses)
system.l2.WritebackDirty_accesses::total        19742                       # number of WritebackDirty accesses(hits+misses)
system.l2.WritebackClean_hits::.writebacks         3915                       # number of WritebackClean hits
system.l2.WritebackClean_hits::total             3915                       # number of WritebackClean hits
system.l2.WritebackClean_accesses::.writebacks         3915                       # number of WritebackClean accesses(hits+misses)
system.l2.WritebackClean_accesses::total         3915                       # number of WritebackClean accesses(hits+misses)
system.l2.ReadExReq_hits::.cpu.data             14517                       # number of ReadExReq hits
system.l2.ReadExReq_hits::total                 14517                       # number of ReadExReq hits
system.l2.ReadExReq_misses::.cpu.data            3640                       # number of ReadExReq misses
system.l2.ReadExReq_misses::total                3640                       # number of ReadExReq misses
system.l2.ReadExReq_miss_latency::.cpu.data    278727500                       # number of ReadExReq miss cycles
system.l2.ReadExReq_miss_latency::total     278727500                       # number of ReadExReq miss cycles
system.l2.ReadExReq_accesses::.cpu.data         18157                       # number of ReadExReq accesses(hits+misses)
system.l2.ReadExReq_accesses::total             18157                       # number of ReadExReq accesses(hits+misses)
system.l2.ReadExReq_miss_rate::.cpu.data     0.200474                       # miss rate for ReadExReq accesses
system.l2.ReadExReq_miss_rate::total         0.200474                       # miss rate for ReadExReq accesses
system.l2.ReadExReq_avg_miss_latency::.cpu.data 76573.489011                       # average ReadExReq miss latency
system.l2.ReadExReq_avg_miss_latency::total 76573.489011                       # average ReadExReq miss latency
system.l2.ReadExReq_mshr_misses::.cpu.data         3640                       # number of ReadExReq MSHR misses
system.l2.ReadExReq_mshr_misses::total           3640                       # number of ReadExReq MSHR misses
system.l2.ReadExReq_mshr_miss_latency::.cpu.data    242327500                       # number of ReadExReq MSHR miss cycles
system.l2.ReadExReq_mshr_miss_latency::total    242327500                       # number of ReadExReq MSHR miss cycles
system.l2.ReadExReq_mshr_miss_rate::.cpu.data     0.200474                       # mshr miss rate for ReadExReq accesses
system.l2.ReadExReq_mshr_miss_rate::total     0.200474                       # mshr miss rate for ReadExReq accesses
system.l2.ReadExReq_avg_mshr_miss_latency::.cpu.data 66573.489011                       # average ReadExReq mshr miss latency
system.l2.ReadExReq_avg_mshr_miss_latency::total 66573.489011                       # average ReadExReq mshr miss latency
system.l2.ReadCleanReq_hits::.cpu.inst           2805                       # number of ReadCleanReq hits
system.l2.ReadCleanReq_hits::total               2805                       # number of ReadCleanReq hits
system.l2.ReadCleanReq_misses::.cpu.inst         1666                       # number of ReadCleanReq misses
system.l2.ReadCleanReq_misses::total             1666                       # number of ReadCleanReq misses
system.l2.ReadCleanReq_miss_latency::.cpu.inst    126381500                       # number of ReadCleanReq miss cycles
system.l2.ReadCleanReq_miss_latency::total    126381500                       # number of ReadCleanReq miss cycles
system.l2.ReadCleanReq_accesses::.cpu.inst         4471                       # number of ReadCleanReq accesses(hits+misses)
system.l2.ReadCleanReq_accesses::total           4471                       # number of ReadCleanReq accesses(hits+misses)
system.l2.ReadCleanReq_miss_rate::.cpu.inst     0.372624                       # miss rate for ReadCleanReq accesses
system.l2.ReadCleanReq_miss_rate::total      0.372624                       # miss rate for ReadCleanReq accesses
system.l2.ReadCleanReq_avg_miss_latency::.cpu.inst 75859.243697                       # average ReadCleanReq miss latency
system.l2.ReadCleanReq_avg_miss_latency::total 75859.243697                       # average ReadCleanReq miss latency
system.l2.ReadCleanReq_mshr_misses::.cpu.inst         1666                       # number of ReadCleanReq MSHR misses
system.l2.ReadCleanReq_mshr_misses::total         1666                       # number of ReadCleanReq MSHR misses
system.l2.ReadCleanReq_mshr_miss_latency::.cpu.inst    109721500                       # number of ReadCleanReq MSHR miss cycles
system.l2.ReadCleanReq_mshr_miss_latency::total    109721500                       # number of ReadCleanReq MSHR miss cycles
system.l2.ReadCleanReq_mshr_miss_rate::.cpu.inst     0.372624                       # mshr miss rate for ReadCleanReq accesses
system.l2.ReadCleanReq_mshr_miss_rate::total     0.372624                       # mshr miss rate for ReadCleanReq accesses
system.l2.ReadCleanReq_avg_mshr_miss_latency::.cpu.inst 65859.243697                       # average ReadCleanReq mshr miss latency
system.l2.ReadCleanReq_avg_mshr_miss_latency::total 65859.243697                       # average ReadCleanReq mshr miss latency
system.l2.ReadSharedReq_hits::.cpu.data          3735                       # number of ReadSharedReq hits
system.l2.ReadSharedReq_hits::total              3735                       # number of ReadSharedReq hits
system.l2.ReadSharedReq_misses::.cpu.data          745                       # number of ReadSharedReq misses
system.l2.ReadSharedReq_misses::total             745                       # number of ReadSharedReq misses
system.l2.ReadSharedReq_miss_latency::.cpu.data     58509500                       # number of ReadSharedReq miss cycles
system.l2.ReadSharedReq_miss_latency::total     58509500                       # number of ReadSharedReq miss cycles
system.l2.ReadSharedReq_accesses::.cpu.data         4480                       # number of ReadSharedReq accesses(hits+misses)
system.l2.ReadSharedReq_accesses::total          4480                       # number of ReadSharedReq accesses(hits+misses)
system.l2.ReadSharedReq_miss_rate::.cpu.data     0.166295                       # miss rate for ReadSharedReq accesses
system.l2.ReadSharedReq_miss_rate::total     0.166295                       # miss rate for ReadSharedReq accesses
system.l2.ReadSharedReq_avg_miss_latency::.cpu.data 78536.241611                       # average ReadSharedReq miss latency
system.l2.ReadSharedReq_avg_miss_latency::total 78536.241611                       # average ReadSharedReq miss latency
system.l2.ReadSharedReq_mshr_hits::.cpu.data            9                       # number of ReadSharedReq MSHR hits
system.l2.ReadSharedReq_mshr_hits::total            9                       # number of ReadSharedReq MSHR hits
system.l2.ReadSharedReq_mshr_misses::.cpu.data          736                       # number of ReadSharedReq MSHR misses
system.l2.ReadSharedReq_mshr_misses::total          736                       # number of ReadSharedReq MSHR misses
system.l2.ReadSharedReq_mshr_miss_latency::.cpu.data     50595000                       # number of ReadSharedReq MSHR miss cycles
system.l2.ReadSharedReq_mshr_miss_latency::total     50595000                       # number of ReadSharedReq MSHR miss cycles
system.l2.ReadSharedReq_mshr_miss_rate::.cpu.data     0.164286                       # mshr miss rate for ReadSharedReq accesses
system.l2.ReadSharedReq_mshr_miss_rate::total     0.164286                       # mshr miss rate for ReadSharedReq accesses
system.l2.ReadSharedReq_avg_mshr_miss_latency::.cpu.data 68743.206522                       # average ReadSharedReq mshr miss latency
system.l2.ReadSharedReq_avg_mshr_miss_latency::total 68743.206522                       # average ReadSharedReq mshr miss latency
system.l2.power_state.pwrStateResidencyTicks::UNDEFINED  63181896000                       # Cumulative time (in ticks) in various power states
system.l2.tags.tagsinuse                  5855.230839                       # Cycle average of tags in use
system.l2.tags.total_refs                       51522                       # Total number of references to valid blocks.
system.l2.tags.sampled_refs                      6042                       # Sample count of references to valid blocks.
system.l2.tags.avg_refs                      8.527309                       # Average number of references to valid blocks.
system.l2.tags.warmup_cycle                     77000                       # Cycle when the warmup percentage was hit.
system.l2.tags.occ_blocks::.cpu.inst      1658.424983                       # Average occupied blocks per requestor
system.l2.tags.occ_blocks::.cpu.data      4196.805856                       # Average occupied blocks per requestor
system.l2.tags.occ_percent::.cpu.inst        0.050611                       # Average percentage of cache occupancy
system.l2.tags.occ_percent::.cpu.data        0.128076                       # Average percentage of cache occupancy
system.l2.tags.occ_percent::total            0.178687                       # Average percentage of cache occupancy
system.l2.tags.occ_task_id_blocks::1024          6042                       # Occupied blocks per task id
system.l2.tags.age_task_id_blocks_1024::4         6042                       # Occupied blocks per task id
system.l2.tags.occ_task_id_percent::1024     0.184387                       # Percentage of cache occupancy per task id
system.l2.tags.tag_accesses                    418290                       # Number of tag accesses
system.l2.tags.data_accesses                   418290                       # Number of data accesses
system.l2.tags.power_state.pwrStateResidencyTicks::UNDEFINED  63181896000                       # Cumulative time (in ticks) in various power states
system.mem_ctrls.avgPriority_.cpu.inst::samples      1666.00                       # Average QoS priority value for accepted requests
system.mem_ctrls.avgPriority_.cpu.data::samples      4376.00                       # Average QoS priority value for accepted requests
system.mem_ctrls.priorityMinLatency      0.000000018750                       # per QoS priority minimum request to response latency (s)
system.mem_ctrls.priorityMaxLatency      0.000000589000                       # per QoS priority maximum request to response latency (s)
system.mem_ctrls.numReadWriteTurnArounds            0                       # Number of turnarounds from READ to WRITE
system.mem_ctrls.numWriteReadTurnArounds            0                       # Number of turnarounds from WRITE to READ
system.mem_ctrls.numStayReadState               28304                       # Number of times bus staying in READ state
system.mem_ctrls.numStayWriteState                  0                       # Number of times bus staying in WRITE state
system.mem_ctrls.readReqs                        6042                       # Number of read requests accepted
system.mem_ctrls.writeReqs                          0                       # Number of write requests accepted
system.mem_ctrls.readBursts                      6042                       # Number of controller read bursts, including those serviced by the write queue
system.mem_ctrls.writeBursts                        0                       # Number of controller write bursts, including those merged in the write queue
system.mem_ctrls.servicedByWrQ                      0                       # Number of controller read bursts serviced by the write queue
system.mem_ctrls.mergedWrBursts                     0                       # Number of controller write bursts merged with an existing one
system.mem_ctrls.neitherReadNorWriteReqs            0                       # Number of requests that are neither read nor write
system.mem_ctrls.avgRdQLen                       1.00                       # Average read queue length when enqueuing
system.mem_ctrls.avgWrQLen                       0.00                       # Average write queue length when enqueuing
system.mem_ctrls.numRdRetry                         0                       # Number of times read queue was full causing retry
system.mem_ctrls.numWrRetry                         0                       # Number of times write queue was full causing retry
system.mem_ctrls.readPktSize::0                     0                       # Read request sizes (log2)
system.mem_ctrls.readPktSize::1                     0                       # Read request sizes (log2)
system.mem_ctrls.readPktSize::2                     0                       # Read request sizes (log2)
system.mem_ctrls.readPktSize::3                     0                       # Read request sizes (log2)
system.mem_ctrls.readPktSize::4                     0                       # Read request sizes (log2)
system.mem_ctrls.readPktSize::5                     0                       # Read request sizes (log2)
system.mem_ctrls.readPktSize::6                  6042                       # Read request sizes (log2)
system.mem_ctrls.writePktSize::0                    0                       # Write request sizes (log2)
system.mem_ctrls.writePktSize::1                    0                       # Write request sizes (log2)
system.mem_ctrls.writePktSize::2                    0                       # Write request sizes (log2)
system.mem_ctrls.writePktSize::3                    0                       # Write request sizes (log2)
system.mem_ctrls.writePktSize::4                    0                       # Write request sizes (log2)
system.mem_ctrls.writePktSize::5                    0                       # Write request sizes (log2)
system.mem_ctrls.writePktSize::6                    0                       # Write request sizes (log2)
system.mem_ctrls.rdQLenPdf::0                    5803                       # What read queue length does an incoming req see
system.mem_ctrls.rdQLenPdf::1                     211                       # What read queue length does an incoming req see
system.mem_ctrls.rdQLenPdf::2                      23                       # What read queue length does an incoming req see
system.mem_ctrls.rdQLenPdf::3                       5                       # What read queue length does an incoming req see
[...]
system.mem_ctrls.dram.bw_read::.cpu.data      4432662                       # Total read bandwidth from this memory (bytes/s)
system.mem_ctrls.dram.bw_read::total          6120234                       # Total read bandwidth from this memory (bytes/s)
system.mem_ctrls.dram.bw_inst_read::.cpu.inst      1687572                       # Instruction read bandwidth from this memory (bytes/s)
system.mem_ctrls.dram.bw_inst_read::total      1687572                       # Instruction read bandwidth from this memory (bytes/s)
system.mem_ctrls.dram.bw_total::.cpu.inst      1687572                       # Total bandwidth to/from this memory (bytes/s)
system.mem_ctrls.dram.bw_total::.cpu.data      4432662                       # Total bandwidth to/from this memory (bytes/s)
system.mem_ctrls.dram.bw_total::total         6120234                       # Total bandwidth to/from this memory (bytes/s)
system.mem_ctrls.dram.readBursts                 6042                       # Number of DRAM read bursts
system.mem_ctrls.dram.writeBursts                   0                       # Number of DRAM write bursts
system.mem_ctrls.dram.perBankRdBursts::0          425                       # Per bank write bursts
system.mem_ctrls.dram.perBankRdBursts::1          371                       # Per bank write bursts
system.mem_ctrls.dram.perBankRdBursts::2          340                       # Per bank write bursts
system.mem_ctrls.dram.perBankRdBursts::3          441                       # Per bank write bursts
system.mem_ctrls.dram.perBankRdBursts::4          392                       # Per bank write bursts
system.mem_ctrls.dram.perBankRdBursts::5          429                       # Per bank write bursts
system.mem_ctrls.dram.perBankRdBursts::6          282                       # Per bank write bursts
system.mem_ctrls.dram.perBankRdBursts::7          293                       # Per bank write bursts
system.mem_ctrls.dram.perBankRdBursts::8          290                       # Per bank write bursts
system.mem_ctrls.dram.perBankRdBursts::9          457                       # Per bank write bursts
system.mem_ctrls.dram.perBankRdBursts::10          308                       # Per bank write bursts
system.mem_ctrls.dram.perBankRdBursts::11          382                       # Per bank write bursts
system.mem_ctrls.dram.perBankRdBursts::12          424                       # Per bank write bursts
system.mem_ctrls.dram.perBankRdBursts::13          487                       # Per bank write bursts
system.mem_ctrls.dram.perBankRdBursts::14          401                       # Per bank write bursts
system.mem_ctrls.dram.perBankRdBursts::15          320                       # Per bank write bursts
system.mem_ctrls.dram.perBankWrBursts::0            0                       # Per bank write bursts
system.mem_ctrls.dram.perBankWrBursts::1            0                       # Per bank write bursts
system.mem_ctrls.dram.perBankWrBursts::2            0                       # Per bank write bursts
system.mem_ctrls.dram.perBankWrBursts::3            0                       # Per bank write bursts
system.mem_ctrls.dram.perBankWrBursts::4            0                       # Per bank write bursts
system.mem_ctrls.dram.perBankWrBursts::5            0                       # Per bank write bursts
system.mem_ctrls.dram.perBankWrBursts::6            0                       # Per bank write bursts
system.mem_ctrls.dram.perBankWrBursts::7            0                       # Per bank write bursts
system.mem_ctrls.dram.perBankWrBursts::8            0                       # Per bank write bursts
system.mem_ctrls.dram.perBankWrBursts::9            0                       # Per bank write bursts
system.mem_ctrls.dram.perBankWrBursts::10            0                       # Per bank write bursts
system.mem_ctrls.dram.perBankWrBursts::11            0                       # Per bank write bursts
system.mem_ctrls.dram.perBankWrBursts::12            0                       # Per bank write bursts
system.mem_ctrls.dram.perBankWrBursts::13            0                       # Per bank write bursts
system.mem_ctrls.dram.perBankWrBursts::14            0                       # Per bank write bursts
system.mem_ctrls.dram.perBankWrBursts::15            0                       # Per bank write bursts
system.mem_ctrls.dram.totQLat                41380750                       # Total ticks spent queuing
system.mem_ctrls.dram.totBusLat              30210000                       # Total ticks spent in databus transfers
system.mem_ctrls.dram.totMemAccLat          154668250                       # Total ticks spent from burst creation until serviced by the DRAM
system.mem_ctrls.dram.avgQLat                 6848.85                       # Average queueing delay per DRAM burst
system.mem_ctrls.dram.avgBusLat               5000.00                       # Average bus latency per DRAM burst
system.mem_ctrls.dram.avgMemAccLat           25598.85                       # Average memory access latency per DRAM burst
system.mem_ctrls.dram.readRowHits                4852                       # Number of row buffer hits during reads
system.mem_ctrls.dram.writeRowHits                  0                       # Number of row buffer hits during writes
system.mem_ctrls.dram.readRowHitRate            80.30                       # Row buffer hit rate for reads
system.mem_ctrls.dram.writeRowHitRate             nan                       # Row buffer hit rate for writes
system.mem_ctrls.dram.bytesPerActivate::samples         1190                       # Bytes accessed per row activation
system.mem_ctrls.dram.bytesPerActivate::mean   324.947899                       # Bytes accessed per row activation
system.mem_ctrls.dram.bytesPerActivate::gmean   218.033530                       # Bytes accessed per row activation
system.mem_ctrls.dram.bytesPerActivate::stdev   303.047047                       # Bytes accessed per row activation
system.mem_ctrls.dram.bytesPerActivate::0-127          277     23.28%     23.28% # Bytes accessed per row activation
system.mem_ctrls.dram.bytesPerActivate::128-255          361     30.34%     53.61% # Bytes accessed per row activation
system.mem_ctrls.dram.bytesPerActivate::256-383          194     16.30%     69.92% # Bytes accessed per row activation
system.mem_ctrls.dram.bytesPerActivate::384-511          131     11.01%     80.92% # Bytes accessed per row activation
system.mem_ctrls.dram.bytesPerActivate::512-639           38      3.19%     84.12% # Bytes accessed per row activation
system.mem_ctrls.dram.bytesPerActivate::640-767           24      2.02%     86.13% # Bytes accessed per row activation
system.mem_ctrls.dram.bytesPerActivate::768-895           15      1.26%     87.39% # Bytes accessed per row activation
system.mem_ctrls.dram.bytesPerActivate::896-1023           17      1.43%     88.82% # Bytes accessed per row activation
system.mem_ctrls.dram.bytesPerActivate::1024-1151          133     11.18%    100.00% # Bytes accessed per row activation
system.mem_ctrls.dram.bytesPerActivate::total         1190                       # Bytes accessed per row activation
system.mem_ctrls.dram.bytesRead                386688                       # Total number of bytes read from DRAM
system.mem_ctrls.dram.bytesWritten                  0                       # Total number of bytes written to DRAM
system.mem_ctrls.dram.avgRdBW                6.120234                       # Average DRAM read bandwidth in MiBytes/s
system.mem_ctrls.dram.avgWrBW                       0                       # Average DRAM write bandwidth in MiBytes/s
system.mem_ctrls.dram.peakBW                 12800.00                       # Theoretical peak bandwidth in MiByte/s
system.mem_ctrls.dram.busUtil                    0.05                       # Data bus utilization in percentage
system.mem_ctrls.dram.busUtilRead                0.05                       # Data bus utilization in percentage for reads
system.mem_ctrls.dram.busUtilWrite               0.00                       # Data bus utilization in percentage for writes
system.mem_ctrls.dram.pageHitRate               80.30                       # Row buffer hit rate, read and write combined
system.mem_ctrls.dram.power_state.pwrStateResidencyTicks::UNDEFINED  63181896000                       # Cumulative time (in ticks) in various power states
system.mem_ctrls.dram.rank0.actEnergy         3712800                       # Energy for activate commands per rank (pJ)
system.mem_ctrls.dram.rank0.preEnergy         1973400                       # Energy for precharge commands per rank (pJ)
system.mem_ctrls.dram.rank0.readEnergy       21227220                       # Energy for read commands per rank (pJ)
system.mem_ctrls.dram.rank0.writeEnergy             0                       # Energy for write commands per rank (pJ)
system.mem_ctrls.dram.rank0.refreshEnergy 4987188960.000001                       # Energy for refresh commands per rank (pJ)
system.mem_ctrls.dram.rank0.actBackEnergy   1503311730                       # Energy for active background per rank (pJ)
system.mem_ctrls.dram.rank0.preBackEnergy  22995901440                       # Energy for precharge background per rank (pJ)
system.mem_ctrls.dram.rank0.actPowerDownEnergy            0                       # Energy for active power-down per rank (pJ)
system.mem_ctrls.dram.rank0.prePowerDownEnergy            0                       # Energy for precharge power-down per rank (pJ)
system.mem_ctrls.dram.rank0.selfRefreshEnergy            0                       # Energy for self refresh per rank (pJ)
system.mem_ctrls.dram.rank0.totalEnergy   29513315550                       # Total energy per rank (pJ)
system.mem_ctrls.dram.rank0.averagePower   467.116649                       # Core power per rank (mW)
system.mem_ctrls.dram.rank0.totalIdleTime            0                       # Total Idle time Per DRAM Rank
system.mem_ctrls.dram.rank0.pwrStateTime::IDLE  59770122250                       # Time in different power states
system.mem_ctrls.dram.rank0.pwrStateTime::REF   2109640000                       # Time in different power states
system.mem_ctrls.dram.rank0.pwrStateTime::SREF            0                       # Time in different power states
system.mem_ctrls.dram.rank0.pwrStateTime::PRE_PDN            0                       # Time in different power states
system.mem_ctrls.dram.rank0.pwrStateTime::ACT   1302133750                       # Time in different power states
system.mem_ctrls.dram.rank0.pwrStateTime::ACT_PDN            0                       # Time in different power states
system.mem_ctrls.dram.rank1.actEnergy         4783800                       # Energy for activate commands per rank (pJ)
system.mem_ctrls.dram.rank1.preEnergy         2542650                       # Energy for precharge commands per rank (pJ)
system.mem_ctrls.dram.rank1.readEnergy       21912660                       # Energy for read commands per rank (pJ)
system.mem_ctrls.dram.rank1.writeEnergy             0                       # Energy for write commands per rank (pJ)
system.mem_ctrls.dram.rank1.refreshEnergy 4987188960.000001                       # Energy for refresh commands per rank (pJ)
system.mem_ctrls.dram.rank1.actBackEnergy   1683748080                       # Energy for active background per rank (pJ)
system.mem_ctrls.dram.rank1.preBackEnergy  22843955040                       # Energy for precharge background per rank (pJ)
system.mem_ctrls.dram.rank1.actPowerDownEnergy            0                       # Energy for active power-down per rank (pJ)
system.mem_ctrls.dram.rank1.prePowerDownEnergy            0                       # Energy for precharge power-down per rank (pJ)
system.mem_ctrls.dram.rank1.selfRefreshEnergy            0                       # Energy for self refresh per rank (pJ)
system.mem_ctrls.dram.rank1.totalEnergy   29544131190                       # Total energy per rank (pJ)
system.mem_ctrls.dram.rank1.averagePower   467.604378                       # Core power per rank (mW)
system.mem_ctrls.dram.rank1.totalIdleTime            0                       # Total Idle time Per DRAM Rank
system.mem_ctrls.dram.rank1.pwrStateTime::IDLE  59373596500                       # Time in different power states
system.mem_ctrls.dram.rank1.pwrStateTime::REF   2109640000                       # Time in different power states
system.mem_ctrls.dram.rank1.pwrStateTime::SREF            0                       # Time in different power states
system.mem_ctrls.dram.rank1.pwrStateTime::PRE_PDN            0                       # Time in different power states
system.mem_ctrls.dram.rank1.pwrStateTime::ACT   1698659500                       # Time in different power states
system.mem_ctrls.dram.rank1.pwrStateTime::ACT_PDN            0                       # Time in different power states
system.mem_ctrls.power_state.pwrStateResidencyTicks::UNDEFINED  63181896000                       # Cumulative time (in ticks) in various power states
system.membus.trans_dist::ReadResp               2402                       # Transaction distribution
system.membus.trans_dist::ReadExReq              3640                       # Transaction distribution
system.membus.trans_dist::ReadExResp             3640                       # Transaction distribution
system.membus.trans_dist::ReadSharedReq          2402                       # Transaction distribution
system.membus.pkt_count_system.l2.mem_side_port::system.mem_ctrls.port        12084                       # Packet count per connected requestor and responder (bytes)
system.membus.pkt_count::total                  12084                       # Packet count per connected requestor and responder (bytes)
system.membus.pkt_size_system.l2.mem_side_port::system.mem_ctrls.port       386688                       # Cumulative packet size per connected requestor and responder (bytes)
system.membus.pkt_size::total                  386688                       # Cumulative packet size per connected requestor and responder (bytes)
system.membus.snoops                                0                       # Total snoops (count)
system.membus.snoopTraffic                          0                       # Total snoop traffic (bytes)
system.membus.snoop_fanout::samples              6042                       # Request fanout histogram
system.membus.snoop_fanout::mean                    0                       # Request fanout histogram
system.membus.snoop_fanout::stdev                   0                       # Request fanout histogram
system.membus.snoop_fanout::underflows              0      0.00%      0.00% # Request fanout histogram
system.membus.snoop_fanout::0                    6042    100.00%    100.00% # Request fanout histogram
system.membus.snoop_fanout::1                       0      0.00%    100.00% # Request fanout histogram
system.membus.snoop_fanout::overflows               0      0.00%    100.00% # Request fanout histogram
system.membus.snoop_fanout::min_value               0                       # Request fanout histogram
system.membus.snoop_fanout::max_value               0                       # Request fanout histogram
system.membus.snoop_fanout::total                6042                       # Request fanout histogram
system.membus.power_state.pwrStateResidencyTicks::UNDEFINED  63181896000                       # Cumulative time (in ticks) in various power states
system.membus.reqLayer0.occupancy             7407500                       # Layer occupancy (ticks)
system.membus.reqLayer0.utilization               0.0                       # Layer utilization (%)
system.membus.respLayer1.occupancy           32023750                       # Layer occupancy (ticks)
system.membus.respLayer1.utilization              0.1                       # Layer utilization (%)
system.tol2bus.trans_dist::ReadResp              8951                       # Transaction distribution
system.tol2bus.trans_dist::WritebackDirty        19742                       # Transaction distribution
system.tol2bus.trans_dist::WritebackClean         3959                       # Transaction distribution
system.tol2bus.trans_dist::CleanEvict             847                       # Transaction distribution
system.tol2bus.trans_dist::ReadExReq            18157                       # Transaction distribution
system.tol2bus.trans_dist::ReadExResp           18157                       # Transaction distribution
system.tol2bus.trans_dist::ReadCleanReq          4471                       # Transaction distribution
system.tol2bus.trans_dist::ReadSharedReq         4480                       # Transaction distribution
system.tol2bus.pkt_count_system.cpu.icache.mem_side_port::system.l2.cpu_side_port        12901                       # Packet count per connected requestor and responder (bytes)
system.tol2bus.pkt_count_system.cpu.dcache.mem_side_port::system.l2.cpu_side_port        65863                       # Packet count per connected requestor and responder (bytes)
system.tol2bus.pkt_count::total                 78764                       # Packet count per connected requestor and responder (bytes)
system.tol2bus.pkt_size_system.cpu.icache.mem_side_port::system.l2.cpu_side_port       539520                       # Cumulative packet size per connected requestor and responder (bytes)
system.tol2bus.pkt_size_system.cpu.dcache.mem_side_port::system.l2.cpu_side_port      2712256                       # Cumulative packet size per connected requestor and responder (bytes)
system.tol2bus.pkt_size::total                3251776                       # Cumulative packet size per connected requestor and responder (bytes)
system.tol2bus.snoops                               0                       # Total snoops (count)
system.tol2bus.snoopTraffic                         0                       # Total snoop traffic (bytes)
system.tol2bus.snoop_fanout::samples            27108                       # Request fanout histogram
system.tol2bus.snoop_fanout::mean            0.004833                       # Request fanout histogram
system.tol2bus.snoop_fanout::stdev           0.069349                       # Request fanout histogram
system.tol2bus.snoop_fanout::underflows             0      0.00%      0.00% # Request fanout histogram
system.tol2bus.snoop_fanout::0                  26977     99.52%     99.52% # Request fanout histogram
system.tol2bus.snoop_fanout::1                    131      0.48%    100.00% # Request fanout histogram
system.tol2bus.snoop_fanout::2                      0      0.00%    100.00% # Request fanout histogram
system.tol2bus.snoop_fanout::overflows              0      0.00%    100.00% # Request fanout histogram
system.tol2bus.snoop_fanout::min_value              0                       # Request fanout histogram
system.tol2bus.snoop_fanout::max_value              1                       # Request fanout histogram
system.tol2bus.snoop_fanout::total              27108                       # Request fanout histogram
system.tol2bus.power_state.pwrStateResidencyTicks::UNDEFINED  63181896000                       # Cumulative time (in ticks) in various power states
system.tol2bus.reqLayer0.occupancy           49529000                       # Layer occupancy (ticks)
system.tol2bus.reqLayer0.utilization              0.1                       # Layer utilization (%)
system.tol2bus.respLayer0.occupancy           6706999                       # Layer occupancy (ticks)
system.tol2bus.respLayer0.utilization             0.0                       # Layer utilization (%)
system.tol2bus.respLayer1.occupancy          33959991                       # Layer occupancy (ticks)
system.tol2bus.respLayer1.utilization             0.1                       # Layer utilization (%)
system.voltage_domain.voltage                       1                       # Voltage in Volts

---------- End Simulation Statistics   ----------
