
---------- Begin Simulation Statistics ----------
final_tick                                82351911500                       # Number of ticks from beginning of simulation (restored from checkpoints and never reset)
host_inst_rate                                  71823                       # Simulator instruction rate (inst/s)
host_mem_usage                                 679744                       # Number of bytes of host memory used
host_op_rate                                    71999                       # Simulator op (including micro ops) rate (op/s)
host_seconds                                  1392.31                       # Real time elapsed on the host
host_tick_rate                               59147599                       # Simulator tick rate (ticks/s)
sim_freq                                 1000000000000                       # Frequency of simulated ticks
sim_insts                                   100000000                       # Number of instructions simulated
sim_ops                                     100245691                       # Number of ops (including micro ops) simulated
sim_seconds                                  0.082352                       # Number of seconds simulated
sim_ticks                                 82351911500                       # Number of ticks simulated
system.cpu.committedInsts                   100000000                       # Number of instructions committed
system.cpu.committedOps                     100245691                       # Number of ops (including micro ops) committed
system.cpu.cpi                               1.647038                       # CPI: cycles per instruction
system.cpu.discardedOps                        537568                       # Number of ops (including micro ops) which were discarded before commit
system.cpu.idleCycles                        34473297                       # Total number of cycles that the object has spent stopped
system.cpu.ipc                               0.607150                       # IPC: instructions per cycle
system.cpu.numCycles                        164703823                       # number of cpu cycles simulated
system.cpu.numFetchSuspends                         0                       # Number of times Execute suspended instruction fetching
system.cpu.numWorkItemsCompleted                    0                       # number of work items this cpu completed
system.cpu.numWorkItemsStarted                      0                       # number of work items this cpu started
system.cpu.op_class_0::No_OpClass                   0      0.00%      0.00% # Class of committed instruction
system.cpu.op_class_0::IntAlu                39795210     39.70%     39.70% # Class of committed instruction
system.cpu.op_class_0::IntMult                  20704      0.02%     39.72% # Class of committed instruction
system.cpu.op_class_0::IntDiv                       7      0.00%     39.72% # Class of committed instruction
system.cpu.op_class_0::FloatAdd                     0      0.00%     39.72% # Class of committed instruction
system.cpu.op_class_0::FloatCmp                     0      0.00%     39.72% # Class of committed instruction
system.cpu.op_class_0::FloatCvt                     0      0.00%     39.72% # Class of committed instruction
system.cpu.op_class_0::FloatMult                    0      0.00%     39.72% # Class of committed instruction
system.cpu.op_class_0::FloatMultAcc                 0      0.00%     39.72% # Class of committed instruction
system.cpu.op_class_0::FloatDiv                     0      0.00%     39.72% # Class of committed instruction
system.cpu.op_class_0::FloatMisc                    0      0.00%     39.72% # Class of committed instruction
system.cpu.op_class_0::FloatSqrt                    0      0.00%     39.72% # Class of committed instruction
system.cpu.op_class_0::SimdAdd                      0      0.00%     39.72% # Class of committed instruction
system.cpu.op_class_0::SimdAddAcc                   0      0.00%     39.72% # Class of committed instruction
system.cpu.op_class_0::SimdAlu                      0      0.00%     39.72% # Class of committed instruction
system.cpu.op_class_0::SimdCmp                      0      0.00%     39.72% # Class of committed instruction
system.cpu.op_class_0::SimdCvt                      0      0.00%     39.72% # Class of committed instruction
system.cpu.op_class_0::SimdMisc                     0      0.00%     39.72% # Class of committed instruction
system.cpu.op_class_0::SimdMult                     0      0.00%     39.72% # Class of committed instruction
system.cpu.op_class_0::SimdMultAcc                  0      0.00%     39.72% # Class of committed instruction
system.cpu.op_class_0::SimdShift                    0      0.00%     39.72% # Class of committed instruction
system.cpu.op_class_0::SimdShiftAcc                 0      0.00%     39.72% # Class of committed instruction
system.cpu.op_class_0::SimdDiv                      0      0.00%     39.72% # Class of committed instruction
system.cpu.op_class_0::SimdSqrt                     0      0.00%     39.72% # Class of committed instruction
system.cpu.op_class_0::SimdFloatAdd                 0      0.00%     39.72% # Class of committed instruction
system.cpu.op_class_0::SimdFloatAlu                 0      0.00%     39.72% # Class of committed instruction
system.cpu.op_class_0::SimdFloatCmp                 0      0.00%     39.72% # Class of committed instruction
system.cpu.op_class_0::SimdFloatCvt                 0      0.00%     39.72% # Class of committed instruction
system.cpu.op_class_0::SimdFloatDiv                 0      0.00%     39.72% # Class of committed instruction
system.cpu.op_class_0::SimdFloatMisc              102      0.00%     39.72% # Class of committed instruction
system.cpu.op_class_0::SimdFloatMult                0      0.00%     39.72% # Class of committed instruction
system.cpu.op_class_0::SimdFloatMultAcc             0      0.00%     39.72% # Class of committed instruction
system.cpu.op_class_0::SimdFloatSqrt                0      0.00%     39.72% # Class of committed instruction
system.cpu.op_class_0::SimdReduceAdd                0      0.00%     39.72% # Class of committed instruction
system.cpu.op_class_0::SimdReduceAlu                0      0.00%     39.72% # Class of committed instruction
system.cpu.op_class_0::SimdReduceCmp                0      0.00%     39.72% # Class of committed instruction
system.cpu.op_class_0::SimdFloatReduceAdd            0      0.00%     39.72% # Class of committed instruction
system.cpu.op_class_0::SimdFloatReduceCmp            0      0.00%     39.72% # Class of committed instruction
system.cpu.op_class_0::SimdAes                      0      0.00%     39.72% # Class of committed instruction
system.cpu.op_class_0::SimdAesMix                   0      0.00%     39.72% # Class of committed instruction
system.cpu.op_class_0::SimdSha1Hash                 0      0.00%     39.72% # Class of committed instruction
system.cpu.op_class_0::SimdSha1Hash2                0      0.00%     39.72% # Class of committed instruction
system.cpu.op_class_0::SimdSha256Hash               0      0.00%     39.72% # Class of committed instruction
system.cpu.op_class_0::SimdSha256Hash2              0      0.00%     39.72% # Class of committed instruction
system.cpu.op_class_0::SimdShaSigma2                0      0.00%     39.72% # Class of committed instruction
system.cpu.op_class_0::SimdShaSigma3                0      0.00%     39.72% # Class of committed instruction
system.cpu.op_class_0::SimdPredAlu                  0      0.00%     39.72% # Class of committed instruction
system.cpu.op_class_0::MemRead               47464384     47.35%     87.07% # Class of committed instruction
system.cpu.op_class_0::MemWrite              12965284     12.93%    100.00% # Class of committed instruction
system.cpu.op_class_0::FloatMemRead                 0      0.00%    100.00% # Class of committed instruction
system.cpu.op_class_0::FloatMemWrite                0      0.00%    100.00% # Class of committed instruction
system.cpu.op_class_0::IprAccess                    0      0.00%    100.00% # Class of committed instruction
system.cpu.op_class_0::InstPrefetch                 0      0.00%    100.00% # Class of committed instruction
system.cpu.op_class_0::total                100245691                       # Class of committed instruction
system.cpu.tickCycles                       130230526                       # Number of cycles that the object actually ticked
system.cpu.workload.numSyscalls                    84                       # Number of system calls
system.membus.snoop_filter.hit_multi_requests            0                       # Number of requests hitting in the snoop filter with multiple (>1) holders of the requested data.
system.membus.snoop_filter.hit_multi_snoops            0                       # Number of snoops hitting in the snoop filter with multiple (>1) holders of the requested data.
system.membus.snoop_filter.hit_single_requests       115772                       # Number of requests hitting in the snoop filter with a single holder of the requested data.
system.membus.snoop_filter.hit_single_snoops            0                       # Number of snoops hitting in the snoop filter with a single holder of the requested data.
system.membus.snoop_filter.tot_requests        297397                       # Total number of requests made to the snoop filter.
system.membus.snoop_filter.tot_snoops               0                       # Total number of snoops made to the snoop filter.
system.tol2bus.snoop_filter.hit_multi_requests           56                       # Number of requests hitting in the snoop filter with multiple (>1) holders of the requested data.
system.tol2bus.snoop_filter.hit_multi_snoops            0                       # Number of snoops hitting in the snoop filter with multiple (>1) holders of the requested data.
system.tol2bus.snoop_filter.hit_single_requests       771639                       # Number of requests hitting in the snoop filter with a single holder of the requested data.
system.tol2bus.snoop_filter.hit_single_snoops          575                       # Number of snoops hitting in the snoop filter with a single holder of the requested data.
system.tol2bus.snoop_filter.tot_requests      1544762                       # Total number of requests made to the snoop filter.
system.tol2bus.snoop_filter.tot_snoops            575                       # Total number of snoops made to the snoop filter.
system.clk_domain.clock                          1000                       # Clock period in ticks
system.cpu.branchPred.lookups                 6047287                       # Number of BP lookups
system.cpu.branchPred.condPredicted           4457286                       # Number of conditional branches predicted
system.cpu.branchPred.condIncorrect            188275                       # Number of conditional branches incorrect
system.cpu.branchPred.BTBLookups              4573890                       # Number of BTB lookups
system.cpu.branchPred.BTBHits                 4571716                       # Number of BTB hits
system.cpu.branchPred.BTBHitPct             99.952469                       # BTB Hit Percentage
system.cpu.branchPred.RASUsed                  136249                       # Number of times the RAS was used to get a target.
system.cpu.branchPred.RASIncorrect                117                       # Number of incorrect RAS predictions.
system.cpu.branchPred.indirectLookups             507                       # Number of indirect predictor lookups.
system.cpu.branchPred.indirectHits                274                       # Number of indirect target hits.
system.cpu.branchPred.indirectMisses              233                       # Number of indirect misses.
system.cpu.branchPred.indirectMispredicted          145                       # Number of mispredicted indirect branches.
system.cpu.dcache.demand_hits::.cpu.data     57513182                       # number of demand (read+write) hits
system.cpu.dcache.demand_hits::total         57513182                       # number of demand (read+write) hits
system.cpu.dcache.overall_hits::.cpu.data     57513196                       # number of overall hits
system.cpu.dcache.overall_hits::total        57513196                       # number of overall hits
system.cpu.dcache.demand_misses::.cpu.data       834809                       # number of demand (read+write) misses
system.cpu.dcache.demand_misses::total         834809                       # number of demand (read+write) misses
system.cpu.dcache.overall_misses::.cpu.data       834825                       # number of overall misses
system.cpu.dcache.overall_misses::total        834825                       # number of overall misses
system.cpu.dcache.demand_miss_latency::.cpu.data  24695119000                       # number of demand (read+write) miss cycles
system.cpu.dcache.demand_miss_latency::total  24695119000                       # number of demand (read+write) miss cycles
system.cpu.dcache.overall_miss_latency::.cpu.data  24695119000                       # number of overall miss cycles
system.cpu.dcache.overall_miss_latency::total  24695119000                       # number of overall miss cycles
system.cpu.dcache.demand_accesses::.cpu.data     58347991                       # number of demand (read+write) accesses
system.cpu.dcache.demand_accesses::total     58347991                       # number of demand (read+write) accesses
system.cpu.dcache.overall_accesses::.cpu.data     58348021                       # number of overall (read+write) accesses
system.cpu.dcache.overall_accesses::total     58348021                       # number of overall (read+write) accesses
system.cpu.dcache.demand_miss_rate::.cpu.data     0.014307                       # miss rate for demand accesses
system.cpu.dcache.demand_miss_rate::total     0.014307                       # miss rate for demand accesses
system.cpu.dcache.overall_miss_rate::.cpu.data     0.014308                       # miss rate for overall accesses
system.cpu.dcache.overall_miss_rate::total     0.014308                       # miss rate for overall accesses
system.cpu.dcache.demand_avg_miss_latency::.cpu.data 29581.759420                       # average overall miss latency
system.cpu.dcache.demand_avg_miss_latency::total 29581.759420                       # average overall miss latency
system.cpu.dcache.overall_avg_miss_latency::.cpu.data 29581.192465                       # average overall miss latency
system.cpu.dcache.overall_avg_miss_latency::total 29581.192465                       # average overall miss latency
system.cpu.dcache.blocked_cycles::no_mshrs            0                       # number of cycles access was blocked
system.cpu.dcache.blocked_cycles::no_targets            0                       # number of cycles access was blocked
system.cpu.dcache.blocked::no_mshrs                 0                       # number of cycles access was blocked
system.cpu.dcache.blocked::no_targets               0                       # number of cycles access was blocked
system.cpu.dcache.avg_blocked_cycles::no_mshrs          nan                       # average number of cycles each access was blocked
system.cpu.dcache.avg_blocked_cycles::no_targets          nan                       # average number of cycles each access was blocked
system.cpu.dcache.writebacks::.writebacks       715767                       # number of writebacks
system.cpu.dcache.writebacks::total            715767                       # number of writebacks
system.cpu.dcache.demand_mshr_hits::.cpu.data        62567                       # number of demand (read+write) MSHR hits
system.cpu.dcache.demand_mshr_hits::total        62567                       # number of demand (read+write) MSHR hits
system.cpu.dcache.overall_mshr_hits::.cpu.data        62567                       # number of overall MSHR hits
system.cpu.dcache.overall_mshr_hits::total        62567                       # number of overall MSHR hits
system.cpu.dcache.demand_mshr_misses::.cpu.data       772242                       # number of demand (read+write) MSHR misses
system.cpu.dcache.demand_mshr_misses::total       772242                       # number of demand (read+write) MSHR misses
system.cpu.dcache.overall_mshr_misses::.cpu.data       772253                       # number of overall MSHR misses
system.cpu.dcache.overall_mshr_misses::total       772253                       # number of overall MSHR misses
system.cpu.dcache.demand_mshr_miss_latency::.cpu.data  22244419500                       # number of demand (read+write) MSHR miss cycles
system.cpu.dcache.demand_mshr_miss_latency::total  22244419500                       # number of demand (read+write) MSHR miss cycles
system.cpu.dcache.overall_mshr_miss_latency::.cpu.data  22245365000                       # number of overall MSHR miss cycles
system.cpu.dcache.overall_mshr_miss_latency::total  22245365000                       # number of overall MSHR miss cycles
system.cpu.dcache.demand_mshr_miss_rate::.cpu.data     0.013235                       # mshr miss rate for demand accesses
system.cpu.dcache.demand_mshr_miss_rate::total     0.013235                       # mshr miss rate for demand accesses
system.cpu.dcache.overall_mshr_miss_rate::.cpu.data     0.013235                       # mshr miss rate for overall accesses
system.cpu.dcache.overall_mshr_miss_rate::total     0.013235                       # mshr miss rate for overall accesses
system.cpu.dcache.demand_avg_mshr_miss_latency::.cpu.data 28804.985354                       # average overall mshr miss latency
system.cpu.dcache.demand_avg_mshr_miss_latency::total 28804.985354                       # average overall mshr miss latency
system.cpu.dcache.overall_avg_mshr_miss_latency::.cpu.data 28805.799395                       # average overall mshr miss latency
system.cpu.dcache.overall_avg_mshr_miss_latency::total 28805.799395                       # average overall mshr miss latency
system.cpu.dcache.replacements                 771229                       # number of replacements
system.cpu.dcache.ReadReq_hits::.cpu.data     44933432                       # number of ReadReq hits
system.cpu.dcache.ReadReq_hits::total        44933432                       # number of ReadReq hits
system.cpu.dcache.ReadReq_misses::.cpu.data       458332                       # number of ReadReq misses
system.cpu.dcache.ReadReq_misses::total        458332                       # number of ReadReq misses
system.cpu.dcache.ReadReq_miss_latency::.cpu.data   9405890000                       # number of ReadReq miss cycles
system.cpu.dcache.ReadReq_miss_latency::total   9405890000                       # number of ReadReq miss cycles
system.cpu.dcache.ReadReq_accesses::.cpu.data     45391764                       # number of ReadReq accesses(hits+misses)
system.cpu.dcache.ReadReq_accesses::total     45391764                       # number of ReadReq accesses(hits+misses)
system.cpu.dcache.ReadReq_miss_rate::.cpu.data     0.010097                       # miss rate for ReadReq accesses
system.cpu.dcache.ReadReq_miss_rate::total     0.010097                       # miss rate for ReadReq accesses
system.cpu.dcache.ReadReq_avg_miss_latency::.cpu.data 20522.001519                       # average ReadReq miss latency
system.cpu.dcache.ReadReq_avg_miss_latency::total 20522.001519                       # average ReadReq miss latency
system.cpu.dcache.ReadReq_mshr_hits::.cpu.data           46                       # number of ReadReq MSHR hits
system.cpu.dcache.ReadReq_mshr_hits::total           46                       # number of ReadReq MSHR hits
system.cpu.dcache.ReadReq_mshr_misses::.cpu.data       458286                       # number of ReadReq MSHR misses
system.cpu.dcache.ReadReq_mshr_misses::total       458286                       # number of ReadReq MSHR misses
system.cpu.dcache.ReadReq_mshr_miss_latency::.cpu.data   8944050500                       # number of ReadReq MSHR miss cycles
system.cpu.dcache.ReadReq_mshr_miss_latency::total   8944050500                       # number of ReadReq MSHR miss cycles
system.cpu.dcache.ReadReq_mshr_miss_rate::.cpu.data     0.010096                       # mshr miss rate for ReadReq accesses
system.cpu.dcache.ReadReq_mshr_miss_rate::total     0.010096                       # mshr miss rate for ReadReq accesses
system.cpu.dcache.ReadReq_avg_mshr_miss_latency::.cpu.data 19516.307502                       # average ReadReq mshr miss latency
system.cpu.dcache.ReadReq_avg_mshr_miss_latency::total 19516.307502                       # average ReadReq mshr miss latency
system.cpu.dcache.WriteReq_hits::.cpu.data     12579750                       # number of WriteReq hits
system.cpu.dcache.WriteReq_hits::total       12579750                       # number of WriteReq hits
system.cpu.dcache.WriteReq_misses::.cpu.data       376477                       # number of WriteReq misses
system.cpu.dcache.WriteReq_misses::total       376477                       # number of WriteReq misses
system.cpu.dcache.WriteReq_miss_latency::.cpu.data  15289229000                       # number of WriteReq miss cycles
system.cpu.dcache.WriteReq_miss_latency::total  15289229000                       # number of WriteReq miss cycles
system.cpu.dcache.WriteReq_accesses::.cpu.data     12956227                       # number of WriteReq accesses(hits+misses)
system.cpu.dcache.WriteReq_accesses::total     12956227                       # number of WriteReq accesses(hits+misses)
system.cpu.dcache.WriteReq_miss_rate::.cpu.data     0.029058                       # miss rate for WriteReq accesses
system.cpu.dcache.WriteReq_miss_rate::total     0.029058                       # miss rate for WriteReq accesses
system.cpu.dcache.WriteReq_avg_miss_latency::.cpu.data 40611.322870                       # average WriteReq miss latency
system.cpu.dcache.WriteReq_avg_miss_latency::total 40611.322870                       # average WriteReq miss latency
system.cpu.dcache.WriteReq_mshr_hits::.cpu.data        62521                       # number of WriteReq MSHR hits
system.cpu.dcache.WriteReq_mshr_hits::total        62521                       # number of WriteReq MSHR hits
system.cpu.dcache.WriteReq_mshr_misses::.cpu.data       313956                       # number of WriteReq MSHR misses
system.cpu.dcache.WriteReq_mshr_misses::total       313956                       # number of WriteReq MSHR misses
system.cpu.dcache.WriteReq_mshr_miss_latency::.cpu.data  13300369000                       # number of WriteReq MSHR miss cycles
system.cpu.dcache.WriteReq_mshr_miss_latency::total  13300369000                       # number of WriteReq MSHR miss cycles
system.cpu.dcache.WriteReq_mshr_miss_rate::.cpu.data     0.024232                       # mshr miss rate for WriteReq accesses
system.cpu.dcache.WriteReq_mshr_miss_rate::total     0.024232                       # mshr miss rate for WriteReq accesses
system.cpu.dcache.WriteReq_avg_mshr_miss_latency::.cpu.data 42363.799386                       # average WriteReq mshr miss latency
system.cpu.dcache.WriteReq_avg_mshr_miss_latency::total 42363.799386                       # average WriteReq mshr miss latency
system.cpu.dcache.SoftPFReq_hits::.cpu.data           14                       # number of SoftPFReq hits
system.cpu.dcache.SoftPFReq_hits::total            14                       # number of SoftPFReq hits
system.cpu.dcache.SoftPFReq_misses::.cpu.data           16                       # number of SoftPFReq misses
system.cpu.dcache.SoftPFReq_misses::total           16                       # number of SoftPFReq misses
system.cpu.dcache.SoftPFReq_accesses::.cpu.data           30                       # number of SoftPFReq accesses(hits+misses)
system.cpu.dcache.SoftPFReq_accesses::total           30                       # number of SoftPFReq accesses(hits+misses)
system.cpu.dcache.SoftPFReq_miss_rate::.cpu.data     0.533333                       # miss rate for SoftPFReq accesses
system.cpu.dcache.SoftPFReq_miss_rate::total     0.533333                       # miss rate for SoftPFReq accesses
system.cpu.dcache.SoftPFReq_mshr_misses::.cpu.data           11                       # number of SoftPFReq MSHR misses
system.cpu.dcache.SoftPFReq_mshr_misses::total           11                       # number of SoftPFReq MSHR misses
system.cpu.dcache.SoftPFReq_mshr_miss_latency::.cpu.data       945500                       # number of SoftPFReq MSHR miss cycles
system.cpu.dcache.SoftPFReq_mshr_miss_latency::total       945500                       # number of SoftPFReq MSHR miss cycles
system.cpu.dcache.SoftPFReq_mshr_miss_rate::.cpu.data     0.366667                       # mshr miss rate for SoftPFReq accesses
system.cpu.dcache.SoftPFReq_mshr_miss_rate::total     0.366667                       # mshr miss rate for SoftPFReq accesses
system.cpu.dcache.SoftPFReq_avg_mshr_miss_latency::.cpu.data 85954.545455                       # average SoftPFReq mshr miss latency
system.cpu.dcache.SoftPFReq_avg_mshr_miss_latency::total 85954.545455                       # average SoftPFReq mshr miss latency
system.cpu.dcache.LoadLockedReq_hits::.cpu.data           61                       # number of LoadLockedReq hits
system.cpu.dcache.LoadLockedReq_hits::total           61                       # number of LoadLockedReq hits
system.cpu.dcache.LoadLockedReq_misses::.cpu.data            1                       # number of LoadLockedReq misses
system.cpu.dcache.LoadLockedReq_misses::total            1                       # number of LoadLockedReq misses
system.cpu.dcache.LoadLockedReq_miss_latency::.cpu.data        72000                       # number of LoadLockedReq miss cycles
system.cpu.dcache.LoadLockedReq_miss_latency::total        72000                       # number of LoadLockedReq miss cycles
system.cpu.dcache.LoadLockedReq_accesses::.cpu.data           62                       # number of LoadLockedReq accesses(hits+misses)
system.cpu.dcache.LoadLockedReq_accesses::total           62                       # number of LoadLockedReq accesses(hits+misses)
system.cpu.dcache.LoadLockedReq_miss_rate::.cpu.data     0.016129                       # miss rate for LoadLockedReq accesses
system.cpu.dcache.LoadLockedReq_miss_rate::total     0.016129                       # miss rate for LoadLockedReq accesses
system.cpu.dcache.LoadLockedReq_avg_miss_latency::.cpu.data        72000                       # average LoadLockedReq miss latency
system.cpu.dcache.LoadLockedReq_avg_miss_latency::total        72000                       # average LoadLockedReq miss latency
system.cpu.dcache.LoadLockedReq_mshr_misses::.cpu.data            1                       # number of LoadLockedReq MSHR misses
system.cpu.dcache.LoadLockedReq_mshr_misses::total            1                       # number of LoadLockedReq MSHR misses
system.cpu.dcache.LoadLockedReq_mshr_miss_latency::.cpu.data        71000                       # number of LoadLockedReq MSHR miss cycles
system.cpu.dcache.LoadLockedReq_mshr_miss_latency::total        71000                       # number of LoadLockedReq MSHR miss cycles
system.cpu.dcache.LoadLockedReq_mshr_miss_rate::.cpu.data     0.016129                       # mshr miss rate for LoadLockedReq accesses
system.cpu.dcache.LoadLockedReq_mshr_miss_rate::total     0.016129                       # mshr miss rate for LoadLockedReq accesses
system.cpu.dcache.LoadLockedReq_avg_mshr_miss_latency::.cpu.data        71000                       # average LoadLockedReq mshr miss latency
system.cpu.dcache.LoadLockedReq_avg_mshr_miss_latency::total        71000                       # average LoadLockedReq mshr miss latency
system.cpu.dcache.StoreCondReq_hits::.cpu.data           62                       # number of StoreCondReq hits
system.cpu.dcache.StoreCondReq_hits::total           62                       # number of StoreCondReq hits
system.cpu.dcache.StoreCondReq_accesses::.cpu.data           62                       # number of StoreCondReq accesses(hits+misses)
system.cpu.dcache.StoreCondReq_accesses::total           62                       # number of StoreCondReq accesses(hits+misses)
system.cpu.dcache.power_state.pwrStateResidencyTicks::UNDEFINED  82351911500                       # Cumulative time (in ticks) in various power states
system.cpu.dcache.tags.tagsinuse          1007.385153                       # Cycle average of tags in use
system.cpu.dcache.tags.total_refs            58285572                       # Total number of references to valid blocks.
system.cpu.dcache.tags.sampled_refs            772253                       # Sample count of references to valid blocks.
system.cpu.dcache.tags.avg_refs             75.474711                       # Average number of references to valid blocks.
system.cpu.dcache.tags.warmup_cycle            176500                       # Cycle when the warmup percentage was hit.
system.cpu.dcache.tags.occ_blocks::.cpu.data  1007.385153                       # Average occupied blocks per requestor
system.cpu.dcache.tags.occ_percent::.cpu.data     0.983775                       # Average percentage of cache occupancy
system.cpu.dcache.tags.occ_percent::total     0.983775                       # Average percentage of cache occupancy
system.cpu.dcache.tags.occ_task_id_blocks::1024         1024                       # Occupied blocks per task id
system.cpu.dcache.tags.age_task_id_blocks_1024::0          400                       # Occupied blocks per task id
system.cpu.dcache.tags.age_task_id_blocks_1024::1          301                       # Occupied blocks per task id
system.cpu.dcache.tags.age_task_id_blocks_1024::2          320                       # Occupied blocks per task id
system.cpu.dcache.tags.age_task_id_blocks_1024::3            1                       # Occupied blocks per task id
system.cpu.dcache.tags.age_task_id_blocks_1024::4            2                       # Occupied blocks per task id
system.cpu.dcache.tags.occ_task_id_percent::1024            1                       # Percentage of cache occupancy per task id
system.cpu.dcache.tags.tag_accesses         117468543                       # Number of tag accesses
system.cpu.dcache.tags.data_accesses        117468543                       # Number of data accesses
system.cpu.dcache.tags.power_state.pwrStateResidencyTicks::UNDEFINED  82351911500                       # Cumulative time (in ticks) in various power states
system.cpu.dtb.instHits                             0                       # ITB inst hits
system.cpu.dtb.instMisses                           0                       # ITB inst misses
system.cpu.dtb.readHits                             0                       # DTB read hits
system.cpu.dtb.readMisses                           0                       # DTB read misses
system.cpu.dtb.writeHits                            0                       # DTB write hits
system.cpu.dtb.writeMisses                          0                       # DTB write misses
system.cpu.dtb.inserts                              0                       # Number of times an entry is inserted into the TLB
system.cpu.dtb.flushTlb                             0                       # Number of times complete TLB was flushed
system.cpu.dtb.flushTlbMva                          0                       # Number of times TLB was flushed by MVA
system.cpu.dtb.flushTlbMvaAsid                      0                       # Number of times TLB was flushed by MVA & ASID
system.cpu.dtb.flushTlbAsid                         0                       # Number of times TLB was flushed by ASID
system.cpu.dtb.flushedEntries                       0                       # Number of entries that have been flushed from TLB
system.cpu.dtb.alignFaults                          0                       # Number of TLB faults due to alignment restrictions
system.cpu.dtb.prefetchFaults                       0                       # Number of TLB faults due to prefetch
system.cpu.dtb.domainFaults                         0                       # Number of TLB faults due to domain restrictions
system.cpu.dtb.permsFaults                          0                       # Number of TLB faults due to permissions restrictions
system.cpu.dtb.readAccesses                         0                       # DTB read accesses
system.cpu.dtb.writeAccesses                        0                       # DTB write accesses
system.cpu.dtb.instAccesses                         0                       # ITB inst accesses
system.cpu.dtb.hits                                 0                       # Total TLB (inst and data) hits
system.cpu.dtb.misses                               0                       # Total TLB (inst and data) misses
system.cpu.dtb.accesses                             0                       # Total TLB (inst and data) accesses
system.cpu.dtb.stage2_mmu.stage2_tlb.instHits            0                       # ITB inst hits
system.cpu.dtb.stage2_mmu.stage2_tlb.instMisses            0                       # ITB inst misses
system.cpu.dtb.stage2_mmu.stage2_tlb.readHits            0                       # DTB read hits
system.cpu.dtb.stage2_mmu.stage2_tlb.readMisses            0                       # DTB read misses
system.cpu.dtb.stage2_mmu.stage2_tlb.writeHits            0                       # DTB write hits
system.cpu.dtb.stage2_mmu.stage2_tlb.writeMisses            0                       # DTB write misses
system.cpu.dtb.stage2_mmu.stage2_tlb.inserts            0                       # Number of times an entry is inserted into the TLB
system.cpu.dtb.stage2_mmu.stage2_tlb.flushTlb            0                       # Number of times complete TLB was flushed
system.cpu.dtb.stage2_mmu.stage2_tlb.flushTlbMva            0                       # Number of times TLB was flushed by MVA
system.cpu.dtb.stage2_mmu.stage2_tlb.flushTlbMvaAsid            0                       # Number of times TLB was flushed by MVA & ASID
system.cpu.dtb.stage2_mmu.stage2_tlb.flushTlbAsid            0                       # Number of times TLB was flushed by ASID
system.cpu.dtb.stage2_mmu.stage2_tlb.flushedEntries            0                       # Number of entries that have been flushed from TLB
system.cpu.dtb.stage2_mmu.stage2_tlb.alignFaults            0                       # Number of TLB faults due to alignment restrictions
system.cpu.dtb.stage2_mmu.stage2_tlb.prefetchFaults            0                       # Number of TLB faults due to prefetch
system.cpu.dtb.stage2_mmu.stage2_tlb.domainFaults            0                       # Number of TLB faults due to domain restrictions
system.cpu.dtb.stage2_mmu.stage2_tlb.permsFaults            0                       # Number of TLB faults due to permissions restrictions
system.cpu.dtb.stage2_mmu.stage2_tlb.readAccesses            0                       # DTB read accesses
system.cpu.dtb.stage2_mmu.stage2_tlb.writeAccesses            0                       # DTB write accesses
system.cpu.dtb.stage2_mmu.stage2_tlb.instAccesses            0                       # ITB inst accesses
system.cpu.dtb.stage2_mmu.stage2_tlb.hits            0                       # Total TLB (inst and data) hits
system.cpu.dtb.stage2_mmu.stage2_tlb.misses            0                       # Total TLB (inst and data) misses
system.cpu.dtb.stage2_mmu.stage2_tlb.accesses            0                       # Total TLB (inst and data) accesses
system.cpu.dtb.stage2_mmu.stage2_tlb.walker.walks            0                       # Table walker walks requested
system.cpu.dtb.stage2_mmu.stage2_tlb.walker.requestOrigin_Requested::Data            0                       # Table walker requests started/completed, data/inst
system.cpu.dtb.stage2_mmu.stage2_tlb.walker.requestOrigin_Requested::Inst            0                       # Table walker requests started/completed, data/inst
system.cpu.dtb.stage2_mmu.stage2_tlb.walker.requestOrigin_Requested::total            0                       # Table walker requests started/completed, data/inst
system.cpu.dtb.stage2_mmu.stage2_tlb.walker.requestOrigin_Completed::Data            0                       # Table walker requests started/completed, data/inst
system.cpu.dtb.stage2_mmu.stage2_tlb.walker.requestOrigin_Completed::Inst            0                       # Table walker requests started/completed, data/inst
system.cpu.dtb.stage2_mmu.stage2_tlb.walker.requestOrigin_Completed::total            0                       # Table walker requests started/completed, data/inst
system.cpu.dtb.stage2_mmu.stage2_tlb.walker.requestOrigin::total            0                       # Table walker requests started/completed, data/inst
system.cpu.dtb.stage2_mmu.stage2_tlb.walker.power_state.pwrStateResidencyTicks::UNDEFINED  82351911500                       # Cumulative time (in ticks) in various power states
system.cpu.dtb.walker.walks                         0                       # Table walker walks requested
system.cpu.dtb.walker.requestOrigin_Requested::Data            0                       # Table walker requests started/completed, data/inst
system.cpu.dtb.walker.requestOrigin_Requested::Inst            0                       # Table walker requests started/completed, data/inst
system.cpu.dtb.walker.requestOrigin_Requested::total            0                       # Table walker requests started/completed, data/inst
system.cpu.dtb.walker.requestOrigin_Completed::Data            0                       # Table walker requests started/completed, data/inst
system.cpu.dtb.walker.requestOrigin_Completed::Inst            0                       # Table walker requests started/completed, data/inst
system.cpu.dtb.walker.requestOrigin_Completed::total            0                       # Table walker requests started/completed, data/inst
system.cpu.dtb.walker.requestOrigin::total            0                       # Table walker requests started/completed, data/inst
system.cpu.dtb.walker.power_state.pwrStateResidencyTicks::UNDEFINED  82351911500                       # Cumulative time (in ticks) in various power states
system.cpu.fetch2.intInstructions            35331849                       # Number of integer instructions successfully decoded
system.cpu.fetch2.fpInstructions                    0                       # Number of floating point instructions successfully decoded
system.cpu.fetch2.vecInstructions                   0                       # Number of SIMD instructions successfully decoded
system.cpu.fetch2.loadInstructions           49018088                       # Number of memory load instructions successfully decoded
system.cpu.fetch2.storeInstructions          13268694                       # Number of memory store instructions successfully decoded
system.cpu.fetch2.amoInstructions                   0                       # Number of memory atomic instructions successfully decoded
system.cpu.icache.demand_hits::.cpu.inst     18253265                       # number of demand (read+write) hits
system.cpu.icache.demand_hits::total         18253265                       # number of demand (read+write) hits
system.cpu.icache.overall_hits::.cpu.inst     18253265                       # number of overall hits
system.cpu.icache.overall_hits::total        18253265                       # number of overall hits
system.cpu.icache.demand_misses::.cpu.inst          870                       # number of demand (read+write) misses
system.cpu.icache.demand_misses::total            870                       # number of demand (read+write) misses
system.cpu.icache.overall_misses::.cpu.inst          870                       # number of overall misses
system.cpu.icache.overall_misses::total           870                       # number of overall misses
system.cpu.icache.demand_miss_latency::.cpu.inst     66674000                       # number of demand (read+write) miss cycles
system.cpu.icache.demand_miss_latency::total     66674000                       # number of demand (read+write) miss cycles
system.cpu.icache.overall_miss_latency::.cpu.inst     66674000                       # number of overall miss cycles
system.cpu.icache.overall_miss_latency::total     66674000                       # number of overall miss cycles
system.cpu.icache.demand_accesses::.cpu.inst     18254135                       # number of demand (read+write) accesses
system.cpu.icache.demand_accesses::total     18254135                       # number of demand (read+write) accesses
system.cpu.icache.overall_accesses::.cpu.inst     18254135                       # number of overall (read+write) accesses
system.cpu.icache.overall_accesses::total     18254135                       # number of overall (read+write) accesses
system.cpu.icache.demand_miss_rate::.cpu.inst     0.000048                       # miss rate for demand accesses
system.cpu.icache.demand_miss_rate::total     0.000048                       # miss rate for demand accesses
system.cpu.icache.overall_miss_rate::.cpu.inst     0.000048                       # miss rate for overall accesses
system.cpu.icache.overall_miss_rate::total     0.000048                       # miss rate for overall accesses
system.cpu.icache.demand_avg_miss_latency::.cpu.inst 76636.781609                       # average overall miss latency
system.cpu.icache.demand_avg_miss_latency::total 76636.781609                       # average overall miss latency
system.cpu.icache.overall_avg_miss_latency::.cpu.inst 76636.781609                       # average overall miss latency
system.cpu.icache.overall_avg_miss_latency::total 76636.781609                       # average overall miss latency
system.cpu.icache.blocked_cycles::no_mshrs            0                       # number of cycles access was blocked
system.cpu.icache.blocked_cycles::no_targets            0                       # number of cycles access was blocked
system.cpu.icache.blocked::no_mshrs                 0                       # number of cycles access was blocked
system.cpu.icache.blocked::no_targets               0                       # number of cycles access was blocked
system.cpu.icache.avg_blocked_cycles::no_mshrs          nan                       # average number of cycles each access was blocked
system.cpu.icache.avg_blocked_cycles::no_targets          nan                       # average number of cycles each access was blocked
system.cpu.icache.writebacks::.writebacks          410                       # number of writebacks
system.cpu.icache.writebacks::total               410                       # number of writebacks
system.cpu.icache.demand_mshr_misses::.cpu.inst          870                       # number of demand (read+write) MSHR misses
system.cpu.icache.demand_mshr_misses::total          870                       # number of demand (read+write) MSHR misses
system.cpu.icache.overall_mshr_misses::.cpu.inst          870                       # number of overall MSHR misses
system.cpu.icache.overall_mshr_misses::total          870                       # number of overall MSHR misses
system.cpu.icache.demand_mshr_miss_latency::.cpu.inst     65804000                       # number of demand (read+write) MSHR miss cycles
system.cpu.icache.demand_mshr_miss_latency::total     65804000                       # number of demand (read+write) MSHR miss cycles
system.cpu.icache.overall_mshr_miss_latency::.cpu.inst     65804000                       # number of overall MSHR miss cycles
system.cpu.icache.overall_mshr_miss_latency::total     65804000                       # number of overall MSHR miss cycles
system.cpu.icache.demand_mshr_miss_rate::.cpu.inst     0.000048                       # mshr miss rate for demand accesses
system.cpu.icache.demand_mshr_miss_rate::total     0.000048                       # mshr miss rate for demand accesses
system.cpu.icache.overall_mshr_miss_rate::.cpu.inst     0.000048                       # mshr miss rate for overall accesses
system.cpu.icache.overall_mshr_miss_rate::total     0.000048                       # mshr miss rate for overall accesses
system.cpu.icache.demand_avg_mshr_miss_latency::.cpu.inst 75636.781609                       # average overall mshr miss latency
system.cpu.icache.demand_avg_mshr_miss_latency::total 75636.781609                       # average overall mshr miss latency
system.cpu.icache.overall_avg_mshr_miss_latency::.cpu.inst 75636.781609                       # average overall mshr miss latency
system.cpu.icache.overall_avg_mshr_miss_latency::total 75636.781609                       # average overall mshr miss latency
system.cpu.icache.replacements                    410                       # number of replacements
system.cpu.icache.ReadReq_hits::.cpu.inst     18253265                       # number of ReadReq hits
system.cpu.icache.ReadReq_hits::total        18253265                       # number of ReadReq hits
system.cpu.icache.ReadReq_misses::.cpu.inst          870                       # number of ReadReq misses
system.cpu.icache.ReadReq_misses::total           870                       # number of ReadReq misses
system.cpu.icache.ReadReq_miss_latency::.cpu.inst     66674000                       # number of ReadReq miss cycles
system.cpu.icache.ReadReq_miss_latency::total     66674000                       # number of ReadReq miss cycles
system.cpu.icache.ReadReq_accesses::.cpu.inst     18254135                       # number of ReadReq accesses(hits+misses)
system.cpu.icache.ReadReq_accesses::total     18254135                       # number of ReadReq accesses(hits+misses)
system.cpu.icache.ReadReq_miss_rate::.cpu.inst     0.000048                       # miss rate for ReadReq accesses
system.cpu.icache.ReadReq_miss_rate::total     0.000048                       # miss rate for ReadReq accesses
system.cpu.icache.ReadReq_avg_miss_latency::.cpu.inst 76636.781609                       # average ReadReq miss latency
system.cpu.icache.ReadReq_avg_miss_latency::total 76636.781609                       # average ReadReq miss latency
system.cpu.icache.ReadReq_mshr_misses::.cpu.inst          870                       # number of ReadReq MSHR misses
system.cpu.icache.ReadReq_mshr_misses::total          870                       # number of ReadReq MSHR misses
system.cpu.icache.ReadReq_mshr_miss_latency::.cpu.inst     65804000                       # number of ReadReq MSHR miss cycles
system.cpu.icache.ReadReq_mshr_miss_latency::total     65804000                       # number of ReadReq MSHR miss cycles
system.cpu.icache.ReadReq_mshr_miss_rate::.cpu.inst     0.000048                       # mshr miss rate for ReadReq accesses
system.cpu.icache.ReadReq_mshr_miss_rate::total     0.000048                       # mshr miss rate for ReadReq accesses
system.cpu.icache.ReadReq_avg_mshr_miss_latency::.cpu.inst 75636.781609                       # average ReadReq mshr miss latency
system.cpu.icache.ReadReq_avg_mshr_miss_latency::total 75636.781609                       # average ReadReq mshr miss latency
system.cpu.icache.power_state.pwrStateResidencyTicks::UNDEFINED  82351911500                       # Cumulative time (in ticks) in various power states
system.cpu.icache.tags.tagsinuse           425.503853                       # Cycle average of tags in use
system.cpu.icache.tags.total_refs            18254135                       # Total number of references to valid blocks.
system.cpu.icache.tags.sampled_refs               870                       # Sample count of references to valid blocks.
system.cpu.icache.tags.avg_refs          20981.764368                       # Average number of references to valid blocks.
system.cpu.icache.tags.warmup_cycle             87500                       # Cycle when the warmup percentage was hit.
system.cpu.icache.tags.occ_blocks::.cpu.inst   425.503853                       # Average occupied blocks per requestor
system.cpu.icache.tags.occ_percent::.cpu.inst     0.831062                       # Average percentage of cache occupancy
system.cpu.icache.tags.occ_percent::total     0.831062                       # Average percentage of cache occupancy
system.cpu.icache.tags.occ_task_id_blocks::1024          460                       # Occupied blocks per task id
system.cpu.icache.tags.age_task_id_blocks_1024::4          460                       # Occupied blocks per task id
system.cpu.icache.tags.occ_task_id_percent::1024     0.898438                       # Percentage of cache occupancy per task id
system.cpu.icache.tags.tag_accesses          36509140                       # Number of tag accesses
system.cpu.icache.tags.data_accesses         36509140                       # Number of data accesses
system.cpu.icache.tags.power_state.pwrStateResidencyTicks::UNDEFINED  82351911500                       # Cumulative time (in ticks) in various power states
system.cpu.itb.instHits                             0                       # ITB inst hits
system.cpu.itb.instMisses                           0                       # ITB inst misses
system.cpu.itb.readHits                             0                       # DTB read hits
system.cpu.itb.readMisses                           0                       # DTB read misses
system.cpu.itb.writeHits                            0                       # DTB write hits
system.cpu.itb.writeMisses                          0                       # DTB write misses
system.cpu.itb.inserts                              0                       # Number of times an entry is inserted into the TLB
system.cpu.itb.flushTlb                             0                       # Number of times complete TLB was flushed
system.cpu.itb.flushTlbMva                          0                       # Number of times TLB was flushed by MVA
system.cpu.itb.flushTlbMvaAsid                      0                       # Number of times TLB was flushed by MVA & ASID
system.cpu.itb.flushTlbAsid                         0                       # Number of times TLB was flushed by ASID
system.cpu.itb.flushedEntries                       0                       # Number of entries that have been flushed from TLB
system.cpu.itb.alignFaults                          0                       # Number of TLB faults due to alignment restrictions
system.cpu.itb.prefetchFaults                       0                       # Number of TLB faults due to prefetch
system.cpu.itb.domainFaults                         0                       # Number of TLB faults due to domain restrictions
system.cpu.itb.permsFaults                          0                       # Number of TLB faults due to permissions restrictions
system.cpu.itb.readAccesses                         0                       # DTB read accesses
system.cpu.itb.writeAccesses                        0                       # DTB write accesses
system.cpu.itb.instAccesses                         0                       # ITB inst accesses
system.cpu.itb.hits                                 0                       # Total TLB (inst and data) hits
system.cpu.itb.misses                               0                       # Total TLB (inst and data) misses
system.cpu.itb.accesses                             0                       # Total TLB (inst and data) accesses
system.cpu.itb.stage2_mmu.stage2_tlb.instHits            0                       # ITB inst hits
system.cpu.itb.stage2_mmu.stage2_tlb.instMisses            0                       # ITB inst misses
system.cpu.itb.stage2_mmu.stage2_tlb.readHits            0                       # DTB read hits
system.cpu.itb.stage2_mmu.stage2_tlb.readMisses            0                       # DTB read misses
system.cpu.itb.stage2_mmu.stage2_tlb.writeHits            0                       # DTB write hits
system.cpu.itb.stage2_mmu.stage2_tlb.writeMisses            0                       # DTB write misses
system.cpu.itb.stage2_mmu.stage2_tlb.inserts            0                       # Number of times an entry is inserted into the TLB
system.cpu.itb.stage2_mmu.stage2_tlb.flushTlb            0                       # Number of times complete TLB was flushed
system.cpu.itb.stage2_mmu.stage2_tlb.flushTlbMva            0                       # Number of times TLB was flushed by MVA
system.cpu.itb.stage2_mmu.stage2_tlb.flushTlbMvaAsid            0                       # Number of times TLB was flushed by MVA & ASID
system.cpu.itb.stage2_mmu.stage2_tlb.flushTlbAsid            0                       # Number of times TLB was flushed by ASID
system.cpu.itb.stage2_mmu.stage2_tlb.flushedEntries            0                       # Number of entries that have been flushed from TLB
system.cpu.itb.stage2_mmu.stage2_tlb.alignFaults            0                       # Number of TLB faults due to alignment restrictions
system.cpu.itb.stage2_mmu.stage2_tlb.prefetchFaults            0                       # Number of TLB faults due to prefetch
system.cpu.itb.stage2_mmu.stage2_tlb.domainFaults            0                       # Number of TLB faults due to domain restrictions
system.cpu.itb.stage2_mmu.stage2_tlb.permsFaults            0                       # Number of TLB faults due to permissions restrictions
system.cpu.itb.stage2_mmu.stage2_tlb.readAccesses            0                       # DTB read accesses
system.cpu.itb.stage2_mmu.stage2_tlb.writeAccesses            0                       # DTB write accesses
system.cpu.itb.stage2_mmu.stage2_tlb.instAccesses            0                       # ITB inst accesses
system.cpu.itb.stage2_mmu.stage2_tlb.hits            0                       # Total TLB (inst and data) hits
system.cpu.itb.stage2_mmu.stage2_tlb.misses            0                       # Total TLB (inst and data) misses
system.cpu.itb.stage2_mmu.stage2_tlb.accesses            0                       # Total TLB (inst and data) accesses
system.cpu.itb.stage2_mmu.stage2_tlb.walker.walks            0                       # Table walker walks requested
system.cpu.itb.stage2_mmu.stage2_tlb.walker.requestOrigin_Requested::Data            0                       # Table walker requests started/completed, data/inst
system.cpu.itb.stage2_mmu.stage2_tlb.walker.requestOrigin_Requested::Inst            0                       # Table walker requests started/completed, data/inst
system.cpu.itb.stage2_mmu.stage2_tlb.walker.requestOrigin_Requested::total            0                       # Table walker requests started/completed, data/inst
system.cpu.itb.stage2_mmu.stage2_tlb.walker.requestOrigin_Completed::Data            0                       # Table walker requests started/completed, data/inst
system.cpu.itb.stage2_mmu.stage2_tlb.walker.requestOrigin_Completed::Inst            0                       # Table walker requests started/completed, data/inst
system.cpu.itb.stage2_mmu.stage2_tlb.walker.requestOrigin_Completed::total            0                       # Table walker requests started/completed, data/inst
system.cpu.itb.stage2_mmu.stage2_tlb.walker.requestOrigin::total            0                       # Table walker requests started/completed, data/inst
system.cpu.itb.stage2_mmu.stage2_tlb.walker.power_state.pwrStateResidencyTicks::UNDEFINED  82351911500                       # Cumulative time (in ticks) in various power states
system.cpu.itb.walker.walks                         0                       # Table walker walks requested
system.cpu.itb.walker.requestOrigin_Requested::Data            0                       # Table walker requests started/completed, data/inst
system.cpu.itb.walker.requestOrigin_Requested::Inst            0                       # Table walker requests started/completed, data/inst
system.cpu.itb.walker.requestOrigin_Requested::total            0                       # Table walker requests started/completed, data/inst
system.cpu.itb.walker.requestOrigin_Completed::Data            0                       # Table walker requests started/completed, data/inst
system.cpu.itb.walker.requestOrigin_Completed::Inst            0                       # Table walker requests started/completed, data/inst
system.cpu.itb.walker.requestOrigin_Completed::total            0                       # Table walker requests started/completed, data/inst
system.cpu.itb.walker.requestOrigin::total            0                       # Table walker requests started/completed, data/inst
system.cpu.itb.walker.power_state.pwrStateResidencyTicks::UNDEFINED  82351911500                       # Cumulative time (in ticks) in various power states
system.cpu.power_state.pwrStateResidencyTicks::ON  82351911500                       # Cumulative time (in ticks) in various power states
system.cpu.thread_0.numInsts                100000000                       # Number of Instructions committed
system.cpu.thread_0.numOps                  100245691                       # Number of Ops committed
system.cpu.thread_0.numMemRefs                      0                       # Number of Memory References
system.cpu_clk_domain.clock                       500                       # Clock period in ticks
system.cpu_voltage_domain.voltage                   1                       # Voltage in Volts
system.l2.demand_hits::.cpu.inst                   52                       # number of demand (read+write) hits
system.l2.demand_hits::.cpu.data               591442                       # number of demand (read+write) hits
system.l2.demand_hits::total                   591494                       # number of demand (read+write) hits
system.l2.overall_hits::.cpu.inst                  52                       # number of overall hits
system.l2.overall_hits::.cpu.data              591442                       # number of overall hits
system.l2.overall_hits::total                  591494                       # number of overall hits
system.l2.demand_misses::.cpu.inst                818                       # number of demand (read+write) misses
system.l2.demand_misses::.cpu.data             180811                       # number of demand (read+write) misses
system.l2.demand_misses::total                 181629                       # number of demand (read+write) misses
system.l2.overall_misses::.cpu.inst               818                       # number of overall misses
system.l2.overall_misses::.cpu.data            180811                       # number of overall misses
system.l2.overall_misses::total                181629                       # number of overall misses
system.l2.demand_miss_latency::.cpu.inst     63944000                       # number of demand (read+write) miss cycles
system.l2.demand_miss_latency::.cpu.data  14860921000                       # number of demand (read+write) miss cycles
system.l2.demand_miss_latency::total      14924865000                       # number of demand (read+write) miss cycles
system.l2.overall_miss_latency::.cpu.inst     63944000                       # number of overall miss cycles
system.l2.overall_miss_latency::.cpu.data  14860921000                       # number of overall miss cycles
system.l2.overall_miss_latency::total     14924865000                       # number of overall miss cycles
system.l2.demand_accesses::.cpu.inst              870                       # number of demand (read+write) accesses
system.l2.demand_accesses::.cpu.data           772253                       # number of demand (read+write) accesses
system.l2.demand_accesses::total               773123                       # number of demand (read+write) accesses
system.l2.overall_accesses::.cpu.inst             870                       # number of overall (read+write) accesses
system.l2.overall_accesses::.cpu.data          772253                       # number of overall (read+write) accesses
system.l2.overall_accesses::total              773123                       # number of overall (read+write) accesses
system.l2.demand_miss_rate::.cpu.inst        0.940230                       # miss rate for demand accesses
system.l2.demand_miss_rate::.cpu.data        0.234134                       # miss rate for demand accesses
system.l2.demand_miss_rate::total            0.234929                       # miss rate for demand accesses
system.l2.overall_miss_rate::.cpu.inst       0.940230                       # miss rate for overall accesses
system.l2.overall_miss_rate::.cpu.data       0.234134                       # miss rate for overall accesses
system.l2.overall_miss_rate::total           0.234929                       # miss rate for overall accesses
system.l2.demand_avg_miss_latency::.cpu.inst 78171.149144                       # average overall miss latency
system.l2.demand_avg_miss_latency::.cpu.data 82190.358994                       # average overall miss latency
system.l2.demand_avg_miss_latency::total 82172.257734                       # average overall miss latency
system.l2.overall_avg_miss_latency::.cpu.inst 78171.149144                       # average overall miss latency
system.l2.overall_avg_miss_latency::.cpu.data 82190.358994                       # average overall miss latency
system.l2.overall_avg_miss_latency::total 82172.257734                       # average overall miss latency
system.l2.blocked_cycles::no_mshrs                  0                       # number of cycles access was blocked
system.l2.blocked_cycles::no_targets                0                       # number of cycles access was blocked
system.l2.blocked::no_mshrs                         0                       # number of cycles access was blocked
system.l2.blocked::no_targets                       0                       # number of cycles access was blocked
system.l2.avg_blocked_cycles::no_mshrs            nan                       # average number of cycles each access was blocked
system.l2.avg_blocked_cycles::no_targets          nan                       # average number of cycles each access was blocked
system.l2.writebacks::.writebacks               63779                       # number of writebacks
system.l2.writebacks::total                     63779                       # number of writebacks
system.l2.demand_mshr_hits::.cpu.data               2                       # number of demand (read+write) MSHR hits
system.l2.demand_mshr_hits::total                   2                       # number of demand (read+write) MSHR hits
system.l2.overall_mshr_hits::.cpu.data              2                       # number of overall MSHR hits
system.l2.overall_mshr_hits::total                  2                       # number of overall MSHR hits
system.l2.demand_mshr_misses::.cpu.inst           818                       # number of demand (read+write) MSHR misses
system.l2.demand_mshr_misses::.cpu.data        180809                       # number of demand (read+write) MSHR misses
system.l2.demand_mshr_misses::total            181627                       # number of demand (read+write) MSHR misses
system.l2.overall_mshr_misses::.cpu.inst          818                       # number of overall MSHR misses
system.l2.overall_mshr_misses::.cpu.data       180809                       # number of overall MSHR misses
system.l2.overall_mshr_misses::total           181627                       # number of overall MSHR misses
system.l2.demand_mshr_miss_latency::.cpu.inst     55764000                       # number of demand (read+write) MSHR miss cycles
system.l2.demand_mshr_miss_latency::.cpu.data  13052699500                       # number of demand (read+write) MSHR miss cycles
system.l2.demand_mshr_miss_latency::total  13108463500                       # number of demand (read+write) MSHR miss cycles
system.l2.overall_mshr_miss_latency::.cpu.inst     55764000                       # number of overall MSHR miss cycles
system.l2.overall_mshr_miss_latency::.cpu.data  13052699500                       # number of overall MSHR miss cycles
system.l2.overall_mshr_miss_latency::total  13108463500                       # number of overall MSHR miss cycles
system.l2.demand_mshr_miss_rate::.cpu.inst     0.940230                       # mshr miss rate for demand accesses
system.l2.demand_mshr_miss_rate::.cpu.data     0.234132                       # mshr miss rate for demand accesses
system.l2.demand_mshr_miss_rate::total       0.234926                       # mshr miss rate for demand accesses
system.l2.overall_mshr_miss_rate::.cpu.inst     0.940230                       # mshr miss rate for overall accesses
system.l2.overall_mshr_miss_rate::.cpu.data     0.234132                       # mshr miss rate for overall accesses
system.l2.overall_mshr_miss_rate::total      0.234926                       # mshr miss rate for overall accesses
system.l2.demand_avg_mshr_miss_latency::.cpu.inst 68171.149144                       # average overall mshr miss latency
system.l2.demand_avg_mshr_miss_latency::.cpu.data 72190.540847                       # average overall mshr miss latency
system.l2.demand_avg_mshr_miss_latency::total 72172.438569                       # average overall mshr miss latency
system.l2.overall_avg_mshr_miss_latency::.cpu.inst 68171.149144                       # average overall mshr miss latency
system.l2.overall_avg_mshr_miss_latency::.cpu.data 72190.540847                       # average overall mshr miss latency
system.l2.overall_avg_mshr_miss_latency::total 72172.438569                       # average overall mshr miss latency
system.l2.replacements                         116345                       # number of replacements
system.l2.WritebackDirty_hits::.writebacks       715767                       # number of WritebackDirty hits
system.l2.WritebackDirty_hits::total           715767                       # number of WritebackDirty hits
system.l2.WritebackDirty_accesses::.writebacks       715767                       # number of WritebackDirty accesses(hits+misses)
system.l2.WritebackDirty_accesses::total       715767                       # number of WritebackDirty accesses(hits+misses)
system.l2.WritebackClean_hits::.writebacks          397                       # number of WritebackClean hits
system.l2.WritebackClean_hits::total              397                       # number of WritebackClean hits
system.l2.WritebackClean_accesses::.writebacks          397                       # number of WritebackClean accesses(hits+misses)
system.l2.WritebackClean_accesses::total          397                       # number of WritebackClean accesses(hits+misses)
system.l2.ReadExReq_hits::.cpu.data            186152                       # number of ReadExReq hits
system.l2.ReadExReq_hits::total                186152                       # number of ReadExReq hits
system.l2.ReadExReq_misses::.cpu.data          127803                       # number of ReadExReq misses
system.l2.ReadExReq_misses::total              127803                       # number of ReadExReq misses
system.l2.ReadExReq_miss_latency::.cpu.data  10870428000                       # number of ReadExReq miss cycles
system.l2.ReadExReq_miss_latency::total   10870428000                       # number of ReadExReq miss cycles
system.l2.ReadExReq_accesses::.cpu.data        313955                       # number of ReadExReq accesses(hits+misses)
system.l2.ReadExReq_accesses::total            313955                       # number of ReadExReq accesses(hits+misses)
system.l2.ReadExReq_miss_rate::.cpu.data     0.407074                       # miss rate for ReadExReq accesses
system.l2.ReadExReq_miss_rate::total         0.407074                       # miss rate for ReadExReq accesses
system.l2.ReadExReq_avg_miss_latency::.cpu.data 85056.125443                       # average ReadExReq miss latency
system.l2.ReadExReq_avg_miss_latency::total 85056.125443                       # average ReadExReq miss latency
system.l2.ReadExReq_mshr_misses::.cpu.data       127803                       # number of ReadExReq MSHR misses
system.l2.ReadExReq_mshr_misses::total         127803                       # number of ReadExReq MSHR misses
system.l2.ReadExReq_mshr_miss_latency::.cpu.data   9592398000                       # number of ReadExReq MSHR miss cycles
system.l2.ReadExReq_mshr_miss_latency::total   9592398000                       # number of ReadExReq MSHR miss cycles
system.l2.ReadExReq_mshr_miss_rate::.cpu.data     0.407074                       # mshr miss rate for ReadExReq accesses
system.l2.ReadExReq_mshr_miss_rate::total     0.407074                       # mshr miss rate for ReadExReq accesses
system.l2.ReadExReq_avg_mshr_miss_latency::.cpu.data 75056.125443                       # average ReadExReq mshr miss latency
system.l2.ReadExReq_avg_mshr_miss_latency::total 75056.125443                       # average ReadExReq mshr miss latency
system.l2.ReadCleanReq_hits::.cpu.inst             52                       # number of ReadCleanReq hits
system.l2.ReadCleanReq_hits::total                 52                       # number of ReadCleanReq hits
system.l2.ReadCleanReq_misses::.cpu.inst          818                       # number of ReadCleanReq misses
system.l2.ReadCleanReq_misses::total              818                       # number of ReadCleanReq misses
system.l2.ReadCleanReq_miss_latency::.cpu.inst     63944000                       # number of ReadCleanReq miss cycles
system.l2.ReadCleanReq_miss_latency::total     63944000                       # number of ReadCleanReq miss cycles
system.l2.ReadCleanReq_accesses::.cpu.inst          870                       # number of ReadCleanReq accesses(hits+misses)
system.l2.ReadCleanReq_accesses::total            870                       # number of ReadCleanReq accesses(hits+misses)
system.l2.ReadCleanReq_miss_rate::.cpu.inst     0.940230                       # miss rate for ReadCleanReq accesses
system.l2.ReadCleanReq_miss_rate::total      0.940230                       # miss rate for ReadCleanReq accesses
system.l2.ReadCleanReq_avg_miss_latency::.cpu.inst 78171.149144                       # average ReadCleanReq miss latency
system.l2.ReadCleanReq_avg_miss_latency::total 78171.149144                       # average ReadCleanReq miss latency
system.l2.ReadCleanReq_mshr_misses::.cpu.inst          818                       # number of ReadCleanReq MSHR misses
system.l2.ReadCleanReq_mshr_misses::total          818                       # number of ReadCleanReq MSHR misses
system.l2.ReadCleanReq_mshr_miss_latency::.cpu.inst     55764000                       # number of ReadCleanReq MSHR miss cycles
system.l2.ReadCleanReq_mshr_miss_latency::total     55764000                       # number of ReadCleanReq MSHR miss cycles
system.l2.ReadCleanReq_mshr_miss_rate::.cpu.inst     0.940230                       # mshr miss rate for ReadCleanReq accesses
system.l2.ReadCleanReq_mshr_miss_rate::total     0.940230                       # mshr miss rate for ReadCleanReq accesses
system.l2.ReadCleanReq_avg_mshr_miss_latency::.cpu.inst 68171.149144                       # average ReadCleanReq mshr miss latency
system.l2.ReadCleanReq_avg_mshr_miss_latency::total 68171.149144                       # average ReadCleanReq mshr miss latency
system.l2.ReadSharedReq_hits::.cpu.data        405290                       # number of ReadSharedReq hits
system.l2.ReadSharedReq_hits::total            405290                       # number of ReadSharedReq hits
system.l2.ReadSharedReq_misses::.cpu.data        53008                       # number of ReadSharedReq misses
system.l2.ReadSharedReq_misses::total           53008                       # number of ReadSharedReq misses
system.l2.ReadSharedReq_miss_latency::.cpu.data   3990493000                       # number of ReadSharedReq miss cycles
system.l2.ReadSharedReq_miss_latency::total   3990493000                       # number of ReadSharedReq miss cycles
system.l2.ReadSharedReq_accesses::.cpu.data       458298                       # number of ReadSharedReq accesses(hits+misses)
system.l2.ReadSharedReq_accesses::total        458298                       # number of ReadSharedReq accesses(hits+misses)
system.l2.ReadSharedReq_miss_rate::.cpu.data     0.115663                       # miss rate for ReadSharedReq accesses
system.l2.ReadSharedReq_miss_rate::total     0.115663                       # miss rate for ReadSharedReq accesses
system.l2.ReadSharedReq_avg_miss_latency::.cpu.data 75280.957591                       # average ReadSharedReq miss latency
system.l2.ReadSharedReq_avg_miss_latency::total 75280.957591                       # average ReadSharedReq miss latency
system.l2.ReadSharedReq_mshr_hits::.cpu.data            2                       # number of ReadSharedReq MSHR hits
system.l2.ReadSharedReq_mshr_hits::total            2                       # number of ReadSharedReq MSHR hits
system.l2.ReadSharedReq_mshr_misses::.cpu.data        53006                       # number of ReadSharedReq MSHR misses
system.l2.ReadSharedReq_mshr_misses::total        53006                       # number of ReadSharedReq MSHR misses
system.l2.ReadSharedReq_mshr_miss_latency::.cpu.data   3460301500                       # number of ReadSharedReq MSHR miss cycles
system.l2.ReadSharedReq_mshr_miss_latency::total   3460301500                       # number of ReadSharedReq MSHR miss cycles
system.l2.ReadSharedReq_mshr_miss_rate::.cpu.data     0.115658                       # mshr miss rate for ReadSharedReq accesses
system.l2.ReadSharedReq_mshr_miss_rate::total     0.115658                       # mshr miss rate for ReadSharedReq accesses
system.l2.ReadSharedReq_avg_mshr_miss_latency::.cpu.data 65281.317209                       # average ReadSharedReq mshr miss latency
system.l2.ReadSharedReq_avg_mshr_miss_latency::total 65281.317209                       # average ReadSharedReq mshr miss latency
system.l2.power_state.pwrStateResidencyTicks::UNDEFINED  82351911500                       # Cumulative time (in ticks) in various power states
system.l2.tags.tagsinuse                 63201.962729                       # Cycle average of tags in use
system.l2.tags.total_refs                     1544704                       # Total number of references to valid blocks.
system.l2.tags.sampled_refs                    181881                       # Sample count of references to valid blocks.
system.l2.tags.avg_refs                      8.492938                       # Average number of references to valid blocks.
system.l2.tags.warmup_cycle                     77000                       # Cycle when the warmup percentage was hit.
system.l2.tags.occ_blocks::.writebacks     111.391540                       # Average occupied blocks per requestor
system.l2.tags.occ_blocks::.cpu.inst       155.851589                       # Average occupied blocks per requestor
system.l2.tags.occ_blocks::.cpu.data     62934.719600                       # Average occupied blocks per requestor
system.l2.tags.occ_percent::.writebacks      0.001700                       # Average percentage of cache occupancy
system.l2.tags.occ_percent::.cpu.inst        0.002378                       # Average percentage of cache occupancy
system.l2.tags.occ_percent::.cpu.data        0.960308                       # Average percentage of cache occupancy
system.l2.tags.occ_percent::total            0.964385                       # Average percentage of cache occupancy
system.l2.tags.occ_task_id_blocks::1024         65536                       # Occupied blocks per task id
system.l2.tags.age_task_id_blocks_1024::2            1                       # Occupied blocks per task id
system.l2.tags.age_task_id_blocks_1024::3          122                       # Occupied blocks per task id
system.l2.tags.age_task_id_blocks_1024::4        65413                       # Occupied blocks per task id
system.l2.tags.occ_task_id_percent::1024            1                       # Percentage of cache occupancy per task id
system.l2.tags.tag_accesses                   6360705                       # Number of tag accesses
system.l2.tags.data_accesses                  6360705                       # Number of data accesses
system.l2.tags.power_state.pwrStateResidencyTicks::UNDEFINED  82351911500                       # Cumulative time (in ticks) in various power states
system.mem_ctrls.avgPriority_.writebacks::samples     63779.00                       # Average QoS priority value for accepted requests
system.mem_ctrls.avgPriority_.cpu.inst::samples       818.00                       # Average QoS priority value for accepted requests
system.mem_ctrls.avgPriority_.cpu.data::samples    180790.00                       # Average QoS priority value for accepted requests
system.mem_ctrls.priorityMinLatency      0.000000018750                       # per QoS priority minimum request to response latency (s)
system.mem_ctrls.priorityMaxLatency      0.012695092500                       # per QoS priority maximum request to response latency (s)
system.mem_ctrls.numReadWriteTurnArounds         3842                       # Number of turnarounds from READ to WRITE
system.mem_ctrls.numWriteReadTurnArounds         3842                       # Number of turnarounds from WRITE to READ
system.mem_ctrls.numStayReadState              442185                       # Number of times bus staying in READ state
system.mem_ctrls.numStayWriteState              59980                       # Number of times bus staying in WRITE state
system.mem_ctrls.readReqs                      181627                       # Number of read requests accepted
system.mem_ctrls.writeReqs                      63779                       # Number of write requests accepted
system.mem_ctrls.readBursts                    181627                       # Number of controller read bursts, including those serviced by the write queue
system.mem_ctrls.writeBursts                    63779                       # Number of controller write bursts, including those merged in the write queue
system.mem_ctrls.servicedByWrQ                     19                       # Number of controller read bursts serviced by the write queue
system.mem_ctrls.mergedWrBursts                     0                       # Number of controller write bursts merged with an existing one
system.mem_ctrls.neitherReadNorWriteReqs            0                       # Number of requests that are neither read nor write
system.mem_ctrls.avgRdQLen                       1.07                       # Average read queue length when enqueuing
system.mem_ctrls.avgWrQLen                      24.31                       # Average write queue length when enqueuing
system.mem_ctrls.numRdRetry                         0                       # Number of times read queue was full causing retry
system.mem_ctrls.numWrRetry                         0                       # Number of times write queue was full causing retry
system.mem_ctrls.readPktSize::0                     0                       # Read request sizes (log2)
system.mem_ctrls.readPktSize::1                     0                       # Read request sizes (log2)
system.mem_ctrls.readPktSize::2                     0                       # Read request sizes (log2)
system.mem_ctrls.readPktSize::3                     0                       # Read request sizes (log2)
system.mem_ctrls.readPktSize::4                     0                       # Read request sizes (log2)
system.mem_ctrls.readPktSize::5                     0                       # Read request sizes (log2)
system.mem_ctrls.readPktSize::6                181627                       # Read request sizes (log2)
system.mem_ctrls.writePktSize::0                    0                       # Write request sizes (log2)
system.mem_ctrls.writePktSize::1                    0                       # Write request sizes (log2)
system.mem_ctrls.writePktSize::2                    0                       # Write request sizes (log2)
[...]
system.mem_ctrls.dram.bw_write::.writebacks     49566014                       # Write bandwidth from this memory (bytes/s)
system.mem_ctrls.dram.bw_write::total        49566014                       # Write bandwidth from this memory (bytes/s)
system.mem_ctrls.dram.bw_total::.writebacks     49566014                       # Total bandwidth to/from this memory (bytes/s)
system.mem_ctrls.dram.bw_total::.cpu.inst       635711                       # Total bandwidth to/from this memory (bytes/s)
system.mem_ctrls.dram.bw_total::.cpu.data    140516180                       # Total bandwidth to/from this memory (bytes/s)
system.mem_ctrls.dram.bw_total::total       190717905                       # Total bandwidth to/from this memory (bytes/s)
system.mem_ctrls.dram.readBursts               181608                       # Number of DRAM read bursts
system.mem_ctrls.dram.writeBursts               63761                       # Number of DRAM write bursts
system.mem_ctrls.dram.perBankRdBursts::0        11499                       # Per bank write bursts
system.mem_ctrls.dram.perBankRdBursts::1        11446                       # Per bank write bursts
system.mem_ctrls.dram.perBankRdBursts::2        11596                       # Per bank write bursts
system.mem_ctrls.dram.perBankRdBursts::3        11356                       # Per bank write bursts
system.mem_ctrls.dram.perBankRdBursts::4        11248                       # Per bank write bursts
system.mem_ctrls.dram.perBankRdBursts::5        11332                       # Per bank write bursts
system.mem_ctrls.dram.perBankRdBursts::6        11348                       # Per bank write bursts
system.mem_ctrls.dram.perBankRdBursts::7        11281                       # Per bank write bursts
system.mem_ctrls.dram.perBankRdBursts::8        11495                       # Per bank write bursts
system.mem_ctrls.dram.perBankRdBursts::9        11355                       # Per bank write bursts
system.mem_ctrls.dram.perBankRdBursts::10        11328                       # Per bank write bursts
system.mem_ctrls.dram.perBankRdBursts::11        11318                       # Per bank write bursts
system.mem_ctrls.dram.perBankRdBursts::12        11207                       # Per bank write bursts
system.mem_ctrls.dram.perBankRdBursts::13        11350                       # Per bank write bursts
system.mem_ctrls.dram.perBankRdBursts::14        11165                       # Per bank write bursts
system.mem_ctrls.dram.perBankRdBursts::15        11284                       # Per bank write bursts
system.mem_ctrls.dram.perBankWrBursts::0         3924                       # Per bank write bursts
system.mem_ctrls.dram.perBankWrBursts::1         3995                       # Per bank write bursts
system.mem_ctrls.dram.perBankWrBursts::2         4070                       # Per bank write bursts
system.mem_ctrls.dram.perBankWrBursts::3         3917                       # Per bank write bursts
system.mem_ctrls.dram.perBankWrBursts::4         3903                       # Per bank write bursts
system.mem_ctrls.dram.perBankWrBursts::5         3933                       # Per bank write bursts
system.mem_ctrls.dram.perBankWrBursts::6         4002                       # Per bank write bursts
system.mem_ctrls.dram.perBankWrBursts::7         4029                       # Per bank write bursts
system.mem_ctrls.dram.perBankWrBursts::8         4087                       # Per bank write bursts
system.mem_ctrls.dram.perBankWrBursts::9         4041                       # Per bank write bursts
system.mem_ctrls.dram.perBankWrBursts::10         4086                       # Per bank write bursts
system.mem_ctrls.dram.perBankWrBursts::11         4074                       # Per bank write bursts
system.mem_ctrls.dram.perBankWrBursts::12         3957                       # Per bank write bursts
system.mem_ctrls.dram.perBankWrBursts::13         3985                       # Per bank write bursts
system.mem_ctrls.dram.perBankWrBursts::14         3850                       # Per bank write bursts
system.mem_ctrls.dram.perBankWrBursts::15         3908                       # Per bank write bursts
system.mem_ctrls.dram.totQLat              2225614500                       # Total ticks spent queuing
system.mem_ctrls.dram.totBusLat             908040000                       # Total ticks spent in databus transfers
system.mem_ctrls.dram.totMemAccLat         5630764500                       # Total ticks spent from burst creation until serviced by the DRAM
system.mem_ctrls.dram.avgQLat                12255.05                       # Average queueing delay per DRAM burst
system.mem_ctrls.dram.avgBusLat               5000.00                       # Average bus latency per DRAM burst
system.mem_ctrls.dram.avgMemAccLat           31005.05                       # Average memory access latency per DRAM burst
system.mem_ctrls.dram.readRowHits              133315                       # Number of row buffer hits during reads
system.mem_ctrls.dram.writeRowHits              50296                       # Number of row buffer hits during writes
system.mem_ctrls.dram.readRowHitRate            73.41                       # Row buffer hit rate for reads
system.mem_ctrls.dram.writeRowHitRate           78.88                       # Row buffer hit rate for writes
system.mem_ctrls.dram.bytesPerActivate::samples        61758                       # Bytes accessed per row activation
system.mem_ctrls.dram.bytesPerActivate::mean   254.276628                       # Bytes accessed per row activation
system.mem_ctrls.dram.bytesPerActivate::gmean   139.183425                       # Bytes accessed per row activation
system.mem_ctrls.dram.bytesPerActivate::stdev   306.177625                       # Bytes accessed per row activation
system.mem_ctrls.dram.bytesPerActivate::0-127        35134     56.89%     56.89% # Bytes accessed per row activation
system.mem_ctrls.dram.bytesPerActivate::128-255         8361     13.54%     70.43% # Bytes accessed per row activation
system.mem_ctrls.dram.bytesPerActivate::256-383         1292      2.09%     72.52% # Bytes accessed per row activation
system.mem_ctrls.dram.bytesPerActivate::384-511         1155      1.87%     74.39% # Bytes accessed per row activation
system.mem_ctrls.dram.bytesPerActivate::512-639         8362     13.54%     87.93% # Bytes accessed per row activation
system.mem_ctrls.dram.bytesPerActivate::640-767          517      0.84%     88.77% # Bytes accessed per row activation
system.mem_ctrls.dram.bytesPerActivate::768-895         1150      1.86%     90.63% # Bytes accessed per row activation
system.mem_ctrls.dram.bytesPerActivate::896-1023          382      0.62%     91.25% # Bytes accessed per row activation
system.mem_ctrls.dram.bytesPerActivate::1024-1151         5405      8.75%    100.00% # Bytes accessed per row activation
system.mem_ctrls.dram.bytesPerActivate::total        61758                       # Bytes accessed per row activation
system.mem_ctrls.dram.bytesRead              11622912                       # Total number of bytes read from DRAM
system.mem_ctrls.dram.bytesWritten            4080704                       # Total number of bytes written to DRAM
system.mem_ctrls.dram.avgRdBW              141.137125                       # Average DRAM read bandwidth in MiBytes/s
system.mem_ctrls.dram.avgWrBW               49.552025                       # Average DRAM write bandwidth in MiBytes/s
system.mem_ctrls.dram.peakBW                 12800.00                       # Theoretical peak bandwidth in MiByte/s
system.mem_ctrls.dram.busUtil                    1.49                       # Data bus utilization in percentage
system.mem_ctrls.dram.busUtilRead                1.10                       # Data bus utilization in percentage for reads
system.mem_ctrls.dram.busUtilWrite               0.39                       # Data bus utilization in percentage for writes
system.mem_ctrls.dram.pageHitRate               74.83                       # Row buffer hit rate, read and write combined
system.mem_ctrls.dram.power_state.pwrStateResidencyTicks::UNDEFINED  82351911500                       # Cumulative time (in ticks) in various power states
system.mem_ctrls.dram.rank0.actEnergy       218355480                       # Energy for activate commands per rank (pJ)
system.mem_ctrls.dram.rank0.preEnergy       116058690                       # Energy for precharge commands per rank (pJ)
system.mem_ctrls.dram.rank0.readEnergy      650496840                       # Energy for read commands per rank (pJ)
system.mem_ctrls.dram.rank0.writeEnergy     165855060                       # Energy for write commands per rank (pJ)
system.mem_ctrls.dram.rank0.refreshEnergy 6500432640.000001                       # Energy for refresh commands per rank (pJ)
system.mem_ctrls.dram.rank0.actBackEnergy  17755900140                       # Energy for active background per rank (pJ)
system.mem_ctrls.dram.rank0.preBackEnergy  16670797440                       # Energy for precharge background per rank (pJ)
system.mem_ctrls.dram.rank0.actPowerDownEnergy            0                       # Energy for active power-down per rank (pJ)
system.mem_ctrls.dram.rank0.prePowerDownEnergy            0                       # Energy for precharge power-down per rank (pJ)
system.mem_ctrls.dram.rank0.selfRefreshEnergy            0                       # Energy for self refresh per rank (pJ)
system.mem_ctrls.dram.rank0.totalEnergy   42077896290                       # Total energy per rank (pJ)
system.mem_ctrls.dram.rank0.averagePower   510.952272                       # Core power per rank (mW)
system.mem_ctrls.dram.rank0.totalIdleTime            0                       # Total Idle time Per DRAM Rank
system.mem_ctrls.dram.rank0.pwrStateTime::IDLE  43153770750                       # Time in different power states
system.mem_ctrls.dram.rank0.pwrStateTime::REF   2749760000                       # Time in different power states
system.mem_ctrls.dram.rank0.pwrStateTime::SREF            0                       # Time in different power states
system.mem_ctrls.dram.rank0.pwrStateTime::PRE_PDN            0                       # Time in different power states
system.mem_ctrls.dram.rank0.pwrStateTime::ACT  36448380750                       # Time in different power states
system.mem_ctrls.dram.rank0.pwrStateTime::ACT_PDN            0                       # Time in different power states
system.mem_ctrls.dram.rank1.actEnergy       222596640                       # Energy for activate commands per rank (pJ)
system.mem_ctrls.dram.rank1.preEnergy       118312920                       # Energy for precharge commands per rank (pJ)
system.mem_ctrls.dram.rank1.readEnergy      646184280                       # Energy for read commands per rank (pJ)
system.mem_ctrls.dram.rank1.writeEnergy     166977360                       # Energy for write commands per rank (pJ)
system.mem_ctrls.dram.rank1.refreshEnergy 6500432640.000001                       # Energy for refresh commands per rank (pJ)
system.mem_ctrls.dram.rank1.actBackEnergy  17122020810                       # Energy for active background per rank (pJ)
system.mem_ctrls.dram.rank1.preBackEnergy  17204590560                       # Energy for precharge background per rank (pJ)
system.mem_ctrls.dram.rank1.actPowerDownEnergy            0                       # Energy for active power-down per rank (pJ)
system.mem_ctrls.dram.rank1.prePowerDownEnergy            0                       # Energy for precharge power-down per rank (pJ)
system.mem_ctrls.dram.rank1.selfRefreshEnergy            0                       # Energy for self refresh per rank (pJ)
system.mem_ctrls.dram.rank1.totalEnergy   41981115210                       # Total energy per rank (pJ)
system.mem_ctrls.dram.rank1.averagePower   509.777059                       # Core power per rank (mW)
system.mem_ctrls.dram.rank1.totalIdleTime            0                       # Total Idle time Per DRAM Rank
system.mem_ctrls.dram.rank1.pwrStateTime::IDLE  44549181250                       # Time in different power states
system.mem_ctrls.dram.rank1.pwrStateTime::REF   2749760000                       # Time in different power states
system.mem_ctrls.dram.rank1.pwrStateTime::SREF            0                       # Time in different power states
system.mem_ctrls.dram.rank1.pwrStateTime::PRE_PDN            0                       # Time in different power states
system.mem_ctrls.dram.rank1.pwrStateTime::ACT  35052970250                       # Time in different power states
system.mem_ctrls.dram.rank1.pwrStateTime::ACT_PDN            0                       # Time in different power states
system.mem_ctrls.power_state.pwrStateResidencyTicks::UNDEFINED  82351911500                       # Cumulative time (in ticks) in various power states
system.membus.trans_dist::ReadResp              53824                       # Transaction distribution
system.membus.trans_dist::WritebackDirty        63779                       # Transaction distribution
system.membus.trans_dist::CleanEvict            51991                       # Transaction distribution
system.membus.trans_dist::ReadExReq            127803                       # Transaction distribution
system.membus.trans_dist::ReadExResp           127803                       # Transaction distribution
system.membus.trans_dist::ReadSharedReq         53824                       # Transaction distribution
system.membus.pkt_count_system.l2.mem_side_port::system.mem_ctrls.port       479024                       # Packet count per connected requestor and responder (bytes)
system.membus.pkt_count::total                 479024                       # Packet count per connected requestor and responder (bytes)
system.membus.pkt_size_system.l2.mem_side_port::system.mem_ctrls.port     15705984                       # Cumulative packet size per connected requestor and responder (bytes)
system.membus.pkt_size::total                15705984                       # Cumulative packet size per connected requestor and responder (bytes)
system.membus.snoops                                0                       # Total snoops (count)
system.membus.snoopTraffic                          0                       # Total snoop traffic (bytes)
system.membus.snoop_fanout::samples            181627                       # Request fanout histogram
system.membus.snoop_fanout::mean                    0                       # Request fanout histogram
system.membus.snoop_fanout::stdev                   0                       # Request fanout histogram
system.membus.snoop_fanout::underflows              0      0.00%      0.00% # Request fanout histogram
system.membus.snoop_fanout::0                  181627    100.00%    100.00% # Request fanout histogram
system.membus.snoop_fanout::1                       0      0.00%    100.00% # Request fanout histogram
system.membus.snoop_fanout::overflows               0      0.00%    100.00% # Request fanout histogram
system.membus.snoop_fanout::min_value               0                       # Request fanout histogram
system.membus.snoop_fanout::max_value               0                       # Request fanout histogram
system.membus.snoop_fanout::total              181627                       # Request fanout histogram
system.membus.power_state.pwrStateResidencyTicks::UNDEFINED  82351911500                       # Cumulative time (in ticks) in various power states
system.membus.reqLayer0.occupancy           579058500                       # Layer occupancy (ticks)
system.membus.reqLayer0.utilization               0.7                       # Layer utilization (%)
system.membus.respLayer1.occupancy          976761250                       # Layer occupancy (ticks)
system.membus.respLayer1.utilization              1.2                       # Layer utilization (%)
system.tol2bus.trans_dist::ReadResp            459168                       # Transaction distribution
system.tol2bus.trans_dist::WritebackDirty       779546                       # Transaction distribution
system.tol2bus.trans_dist::WritebackClean          410                       # Transaction distribution
system.tol2bus.trans_dist::CleanEvict          108028                       # Transaction distribution
system.tol2bus.trans_dist::ReadExReq           313955                       # Transaction distribution
system.tol2bus.trans_dist::ReadExResp          313955                       # Transaction distribution
system.tol2bus.trans_dist::ReadCleanReq           870                       # Transaction distribution
system.tol2bus.trans_dist::ReadSharedReq       458298                       # Transaction distribution
system.tol2bus.pkt_count_system.cpu.icache.mem_side_port::system.l2.cpu_side_port         2150                       # Packet count per connected requestor and responder (bytes)
system.tol2bus.pkt_count_system.cpu.dcache.mem_side_port::system.l2.cpu_side_port      2315735                       # Packet count per connected requestor and responder (bytes)
system.tol2bus.pkt_count::total               2317885                       # Packet count per connected requestor and responder (bytes)
system.tol2bus.pkt_size_system.cpu.icache.mem_side_port::system.l2.cpu_side_port        81920                       # Cumulative packet size per connected requestor and responder (bytes)
system.tol2bus.pkt_size_system.cpu.dcache.mem_side_port::system.l2.cpu_side_port     95233280                       # Cumulative packet size per connected requestor and responder (bytes)
system.tol2bus.pkt_size::total               95315200                       # Cumulative packet size per connected requestor and responder (bytes)
system.tol2bus.snoops                          116345                       # Total snoops (count)
system.tol2bus.snoopTraffic                   4081856                       # Total snoop traffic (bytes)
system.tol2bus.snoop_fanout::samples           889468                       # Request fanout histogram
system.tol2bus.snoop_fanout::mean            0.000709                       # Request fanout histogram
system.tol2bus.snoop_fanout::stdev           0.026625                       # Request fanout histogram
system.tol2bus.snoop_fanout::underflows             0      0.00%      0.00% # Request fanout histogram
system.tol2bus.snoop_fanout::0                 888837     99.93%     99.93% # Request fanout histogram
system.tol2bus.snoop_fanout::1                    631      0.07%    100.00% # Request fanout histogram
system.tol2bus.snoop_fanout::2                      0      0.00%    100.00% # Request fanout histogram
system.tol2bus.snoop_fanout::overflows              0      0.00%    100.00% # Request fanout histogram
system.tol2bus.snoop_fanout::min_value              0                       # Request fanout histogram
system.tol2bus.snoop_fanout::max_value              1                       # Request fanout histogram
system.tol2bus.snoop_fanout::total             889468                       # Request fanout histogram
system.tol2bus.power_state.pwrStateResidencyTicks::UNDEFINED  82351911500                       # Cumulative time (in ticks) in various power states
system.tol2bus.reqLayer0.occupancy         1488558000                       # Layer occupancy (ticks)
system.tol2bus.reqLayer0.utilization              1.8                       # Layer utilization (%)
system.tol2bus.respLayer0.occupancy           1305000                       # Layer occupancy (ticks)
system.tol2bus.respLayer0.utilization             0.0                       # Layer utilization (%)
system.tol2bus.respLayer1.occupancy        1158380498                       # Layer occupancy (ticks)
system.tol2bus.respLayer1.utilization             1.4                       # Layer utilization (%)
system.voltage_domain.voltage                       1                       # Voltage in Volts

---------- End Simulation Statistics   ----------
