
---------- Begin Simulation Statistics ----------
final_tick                                86016895500                       # Number of ticks from beginning of simulation (restored from checkpoints and never reset)
host_inst_rate                                  74163                       # Simulator instruction rate (inst/s)
host_mem_usage                                 668992                       # Number of bytes of host memory used
host_op_rate                                    74345                       # Simulator op (including micro ops) rate (op/s)
host_seconds                                  1348.38                       # Real time elapsed on the host
host_tick_rate                               63792781                       # Simulator tick rate (ticks/s)
sim_freq                                 1000000000000                       # Frequency of simulated ticks
sim_insts                                   100000000                       # Number of instructions simulated
sim_ops                                     100245691                       # Number of ops (including micro ops) simulated
sim_seconds                                  0.086017                       # Number of seconds simulated
sim_ticks                                 86016895500                       # Number of ticks simulated
system.cpu.committedInsts                   100000000                       # Number of instructions committed
system.cpu.committedOps                     100245691                       # Number of ops (including micro ops) committed
system.cpu.cpi                               1.720338                       # CPI: cycles per instruction
system.cpu.discardedOps                        537741                       # Number of ops (including micro ops) which were discarded before commit
system.cpu.idleCycles                        41240732                       # Total number of cycles that the object has spent stopped
system.cpu.ipc                               0.581281                       # IPC: instructions per cycle
system.cpu.numCycles                        172033791                       # number of cpu cycles simulated
system.cpu.numFetchSuspends                         0                       # Number of times Execute suspended instruction fetching
system.cpu.numWorkItemsCompleted                    0                       # number of work items this cpu completed
system.cpu.numWorkItemsStarted                      0                       # number of work items this cpu started
system.cpu.op_class_0::No_OpClass                   0      0.00%      0.00% # Class of committed instruction
system.cpu.op_class_0::IntAlu                39795210     39.70%     39.70% # Class of committed instruction
system.cpu.op_class_0::IntMult                  20704      0.02%     39.72% # Class of committed instruction
system.cpu.op_class_0::IntDiv                       7      0.00%     39.72% # Class of committed instruction
system.cpu.op_class_0::FloatAdd                     0      0.00%     39.72% # Class of committed instruction
system.cpu.op_class_0::FloatCmp                     0      0.00%     39.72% # Class of committed instruction
system.cpu.op_class_0::FloatCvt                     0      0.00%     39.72% # Class of committed instruction
system.cpu.op_class_0::FloatMult                    0      0.00%     39.72% # Class of committed instruction
system.cpu.op_class_0::FloatMultAcc                 0      0.00%     39.72% # Class of committed instruction
system.cpu.op_class_0::FloatDiv                     0      0.00%     39.72% # Class of committed instruction
system.cpu.op_class_0::FloatMisc                    0      0.00%     39.72% # Class of committed instruction
system.cpu.op_class_0::FloatSqrt                    0      0.00%     39.72% # Class of committed instruction
system.cpu.op_class_0::SimdAdd                      0      0.00%     39.72% # Class of committed instruction
system.cpu.op_class_0::SimdAddAcc                   0      0.00%     39.72% # Class of committed instruction
system.cpu.op_class_0::SimdAlu                      0      0.00%     39.72% # Class of committed instruction
system.cpu.op_class_0::SimdCmp                      0      0.00%     39.72% # Class of committed instruction
system.cpu.op_class_0::SimdCvt                      0      0.00%     39.72% # Class of committed instruction
system.cpu.op_class_0::SimdMisc                     0      0.00%     39.72% # Class of committed instruction
system.cpu.op_class_0::SimdMult                     0      0.00%     39.72% # Class of committed instruction
system.cpu.op_class_0::SimdMultAcc                  0      0.00%     39.72% # Class of committed instruction
system.cpu.op_class_0::SimdShift                    0      0.00%     39.72% # Class of committed instruction
system.cpu.op_class_0::SimdShiftAcc                 0      0.00%     39.72% # Class of committed instruction
system.cpu.op_class_0::SimdDiv                      0      0.00%     39.72% # Class of committed instruction
system.cpu.op_class_0::SimdSqrt                     0      0.00%     39.72% # Class of committed instruction
system.cpu.op_class_0::SimdFloatAdd                 0      0.00%     39.72% # Class of committed instruction
system.cpu.op_class_0::SimdFloatAlu                 0      0.00%     39.72% # Class of committed instruction
system.cpu.op_class_0::SimdFloatCmp                 0      0.00%     39.72% # Class of committed instruction
system.cpu.op_class_0::SimdFloatCvt                 0      0.00%     39.72% # Class of committed instruction
system.cpu.op_class_0::SimdFloatDiv                 0      0.00%     39.72% # Class of committed instruction
system.cpu.op_class_0::SimdFloatMisc              102      0.00%     39.72% # Class of committed instruction
system.cpu.op_class_0::SimdFloatMult                0      0.00%     39.72% # Class of committed instruction
system.cpu.op_class_0::SimdFloatMultAcc             0      0.00%     39.72% # Class of committed instruction
system.cpu.op_class_0::SimdFloatSqrt                0      0.00%     39.72% # Class of committed instruction
system.cpu.op_class_0::SimdReduceAdd                0      0.00%     39.72% # Class of committed instruction
system.cpu.op_class_0::SimdReduceAlu                0      0.00%     39.72% # Class of committed instruction
system.cpu.op_class_0::SimdReduceCmp                0      0.00%     39.72% # Class of committed instruction
system.cpu.op_class_0::SimdFloatReduceAdd            0      0.00%     39.72% # Class of committed instruction
system.cpu.op_class_0::SimdFloatReduceCmp            0      0.00%     39.72% # Class of committed instruction
system.cpu.op_class_0::SimdAes                      0      0.00%     39.72% # Class of committed instruction
system.cpu.op_class_0::SimdAesMix                   0      0.00%     39.72% # Class of committed instruction
system.cpu.op_class_0::SimdSha1Hash                 0      0.00%     39.72% # Class of committed instruction
system.cpu.op_class_0::SimdSha1Hash2                0      0.00%     39.72% # Class of committed instruction
system.cpu.op_class_0::SimdSha256Hash               0      0.00%     39.72% # Class of committed instruction
system.cpu.op_class_0::SimdSha256Hash2              0      0.00%     39.72% # Class of committed instruction
system.cpu.op_class_0::SimdShaSigma2                0      0.00%     39.72% # Class of committed instruction
system.cpu.op_class_0::SimdShaSigma3                0      0.00%     39.72% # Class of committed instruction
system.cpu.op_class_0::SimdPredAlu                  0      0.00%     39.72% # Class of committed instruction
system.cpu.op_class_0::MemRead               47464384     47.35%     87.07% # Class of committed instruction
system.cpu.op_class_0::MemWrite              12965284     12.93%    100.00% # Class of committed instruction
system.cpu.op_class_0::FloatMemRead                 0      0.00%    100.00% # Class of committed instruction
system.cpu.op_class_0::FloatMemWrite                0      0.00%    100.00% # Class of committed instruction
system.cpu.op_class_0::IprAccess                    0      0.00%    100.00% # Class of committed instruction
system.cpu.op_class_0::InstPrefetch                 0      0.00%    100.00% # Class of committed instruction
system.cpu.op_class_0::total                100245691                       # Class of committed instruction
system.cpu.tickCycles                       130793059                       # Number of cycles that the object actually ticked
system.cpu.workload.numSyscalls                    84                       # Number of system calls
system.membus.snoop_filter.hit_multi_requests            0                       # Number of requests hitting in the snoop filter with multiple (>1) holders of the requested data.
system.membus.snoop_filter.hit_multi_snoops            0                       # Number of snoops hitting in the snoop filter with multiple (>1) holders of the requested data.
system.membus.snoop_filter.hit_single_requests       177147                       # Number of requests hitting in the snoop filter with a single holder of the requested data.
system.membus.snoop_filter.hit_single_snoops            0                       # Number of snoops hitting in the snoop filter with a single holder of the requested data.
system.membus.snoop_filter.tot_requests        387427                       # Total number of requests made to the snoop filter.
system.membus.snoop_filter.tot_snoops               0                       # Total number of snoops made to the snoop filter.
system.tol2bus.snoop_filter.hit_multi_requests          125                       # Number of requests hitting in the snoop filter with multiple (>1) holders of the requested data.
system.tol2bus.snoop_filter.hit_multi_snoops            0                       # Number of snoops hitting in the snoop filter with multiple (>1) holders of the requested data.
system.tol2bus.snoop_filter.hit_single_requests       974663                       # Number of requests hitting in the snoop filter with a single holder of the requested data.
system.tol2bus.snoop_filter.hit_single_snoops          628                       # Number of snoops hitting in the snoop filter with a single holder of the requested data.
system.tol2bus.snoop_filter.tot_requests      1950299                       # Total number of requests made to the snoop filter.
system.tol2bus.snoop_filter.tot_snoops            628                       # Total number of snoops made to the snoop filter.
system.clk_domain.clock                          1000                       # Clock period in ticks
system.cpu.branchPred.lookups                 6047941                       # Number of BP lookups
system.cpu.branchPred.condPredicted           4457866                       # Number of conditional branches predicted
system.cpu.branchPred.condIncorrect            188277                       # Number of conditional branches incorrect
system.cpu.branchPred.BTBLookups              4574484                       # Number of BTB lookups
system.cpu.branchPred.BTBHits                 4572274                       # Number of BTB hits
system.cpu.branchPred.BTBHitPct             99.951689                       # BTB Hit Percentage
system.cpu.branchPred.RASUsed                  136267                       # Number of times the RAS was used to get a target.
system.cpu.branchPred.RASIncorrect                116                       # Number of incorrect RAS predictions.
system.cpu.branchPred.indirectLookups             507                       # Number of indirect predictor lookups.
system.cpu.branchPred.indirectHits                274                       # Number of indirect target hits.
system.cpu.branchPred.indirectMisses              233                       # Number of indirect misses.
system.cpu.branchPred.indirectMispredicted          145                       # Number of mispredicted indirect branches.
system.cpu.dcache.demand_hits::.cpu.data     57308442                       # number of demand (read+write) hits
system.cpu.dcache.demand_hits::total         57308442                       # number of demand (read+write) hits
system.cpu.dcache.overall_hits::.cpu.data     57308456                       # number of overall hits
system.cpu.dcache.overall_hits::total        57308456                       # number of overall hits
system.cpu.dcache.demand_misses::.cpu.data      1038736                       # number of demand (read+write) misses
system.cpu.dcache.demand_misses::total        1038736                       # number of demand (read+write) misses
system.cpu.dcache.overall_misses::.cpu.data      1038752                       # number of overall misses
system.cpu.dcache.overall_misses::total       1038752                       # number of overall misses
system.cpu.dcache.demand_miss_latency::.cpu.data  29916328500                       # number of demand (read+write) miss cycles
system.cpu.dcache.demand_miss_latency::total  29916328500                       # number of demand (read+write) miss cycles
system.cpu.dcache.overall_miss_latency::.cpu.data  29916328500                       # number of overall miss cycles
system.cpu.dcache.overall_miss_latency::total  29916328500                       # number of overall miss cycles
system.cpu.dcache.demand_accesses::.cpu.data     58347178                       # number of demand (read+write) accesses
system.cpu.dcache.demand_accesses::total     58347178                       # number of demand (read+write) accesses
system.cpu.dcache.overall_accesses::.cpu.data     58347208                       # number of overall (read+write) accesses
system.cpu.dcache.overall_accesses::total     58347208                       # number of overall (read+write) accesses
system.cpu.dcache.demand_miss_rate::.cpu.data     0.017803                       # miss rate for demand accesses
system.cpu.dcache.demand_miss_rate::total     0.017803                       # miss rate for demand accesses
system.cpu.dcache.overall_miss_rate::.cpu.data     0.017803                       # miss rate for overall accesses
system.cpu.dcache.overall_miss_rate::total     0.017803                       # miss rate for overall accesses
system.cpu.dcache.demand_avg_miss_latency::.cpu.data 28800.704414                       # average overall miss latency
system.cpu.dcache.demand_avg_miss_latency::total 28800.704414                       # average overall miss latency
system.cpu.dcache.overall_avg_miss_latency::.cpu.data 28800.260794                       # average overall miss latency
system.cpu.dcache.overall_avg_miss_latency::total 28800.260794                       # average overall miss latency
system.cpu.dcache.blocked_cycles::no_mshrs            0                       # number of cycles access was blocked
system.cpu.dcache.blocked_cycles::no_targets            0                       # number of cycles access was blocked
system.cpu.dcache.blocked::no_mshrs                 0                       # number of cycles access was blocked
system.cpu.dcache.blocked::no_targets               0                       # number of cycles access was blocked
system.cpu.dcache.avg_blocked_cycles::no_mshrs          nan                       # average number of cycles each access was blocked
system.cpu.dcache.avg_blocked_cycles::no_targets          nan                       # average number of cycles each access was blocked
system.cpu.dcache.writebacks::.writebacks       860761                       # number of writebacks
system.cpu.dcache.writebacks::total            860761                       # number of writebacks
system.cpu.dcache.demand_mshr_hits::.cpu.data        63982                       # number of demand (read+write) MSHR hits
system.cpu.dcache.demand_mshr_hits::total        63982                       # number of demand (read+write) MSHR hits
system.cpu.dcache.overall_mshr_hits::.cpu.data        63982                       # number of overall MSHR hits
system.cpu.dcache.overall_mshr_hits::total        63982                       # number of overall MSHR hits
system.cpu.dcache.demand_mshr_misses::.cpu.data       974754                       # number of demand (read+write) MSHR misses
system.cpu.dcache.demand_mshr_misses::total       974754                       # number of demand (read+write) MSHR misses
system.cpu.dcache.overall_mshr_misses::.cpu.data       974765                       # number of overall MSHR misses
system.cpu.dcache.overall_mshr_misses::total       974765                       # number of overall MSHR misses
system.cpu.dcache.demand_mshr_miss_latency::.cpu.data  27219062000                       # number of demand (read+write) MSHR miss cycles
system.cpu.dcache.demand_mshr_miss_latency::total  27219062000                       # number of demand (read+write) MSHR miss cycles
system.cpu.dcache.overall_mshr_miss_latency::.cpu.data  27220007500                       # number of overall MSHR miss cycles
system.cpu.dcache.overall_mshr_miss_latency::total  27220007500                       # number of overall MSHR miss cycles
system.cpu.dcache.demand_mshr_miss_rate::.cpu.data     0.016706                       # mshr miss rate for demand accesses
system.cpu.dcache.demand_mshr_miss_rate::total     0.016706                       # mshr miss rate for demand accesses
system.cpu.dcache.overall_mshr_miss_rate::.cpu.data     0.016706                       # mshr miss rate for overall accesses
system.cpu.dcache.overall_mshr_miss_rate::total     0.016706                       # mshr miss rate for overall accesses
system.cpu.dcache.demand_avg_mshr_miss_latency::.cpu.data 27924.032115                       # average overall mshr miss latency
system.cpu.dcache.demand_avg_mshr_miss_latency::total 27924.032115                       # average overall mshr miss latency
system.cpu.dcache.overall_avg_mshr_miss_latency::.cpu.data 27924.686976                       # average overall mshr miss latency
system.cpu.dcache.overall_avg_mshr_miss_latency::total 27924.686976                       # average overall mshr miss latency
system.cpu.dcache.replacements                 974253                       # number of replacements
system.cpu.dcache.ReadReq_hits::.cpu.data     44786103                       # number of ReadReq hits
system.cpu.dcache.ReadReq_hits::total        44786103                       # number of ReadReq hits
system.cpu.dcache.ReadReq_misses::.cpu.data       604848                       # number of ReadReq misses
system.cpu.dcache.ReadReq_misses::total        604848                       # number of ReadReq misses
system.cpu.dcache.ReadReq_miss_latency::.cpu.data  12525648500                       # number of ReadReq miss cycles
system.cpu.dcache.ReadReq_miss_latency::total  12525648500                       # number of ReadReq miss cycles
system.cpu.dcache.ReadReq_accesses::.cpu.data     45390951                       # number of ReadReq accesses(hits+misses)
system.cpu.dcache.ReadReq_accesses::total     45390951                       # number of ReadReq accesses(hits+misses)
system.cpu.dcache.ReadReq_miss_rate::.cpu.data     0.013325                       # miss rate for ReadReq accesses
system.cpu.dcache.ReadReq_miss_rate::total     0.013325                       # miss rate for ReadReq accesses
system.cpu.dcache.ReadReq_avg_miss_latency::.cpu.data 20708.754100                       # average ReadReq miss latency
system.cpu.dcache.ReadReq_avg_miss_latency::total 20708.754100                       # average ReadReq miss latency
system.cpu.dcache.ReadReq_mshr_hits::.cpu.data           55                       # number of ReadReq MSHR hits
system.cpu.dcache.ReadReq_mshr_hits::total           55                       # number of ReadReq MSHR hits
system.cpu.dcache.ReadReq_mshr_misses::.cpu.data       604793                       # number of ReadReq MSHR misses
system.cpu.dcache.ReadReq_mshr_misses::total       604793                       # number of ReadReq MSHR misses
system.cpu.dcache.ReadReq_mshr_miss_latency::.cpu.data  11917162500                       # number of ReadReq MSHR miss cycles
system.cpu.dcache.ReadReq_mshr_miss_latency::total  11917162500                       # number of ReadReq MSHR miss cycles
system.cpu.dcache.ReadReq_mshr_miss_rate::.cpu.data     0.013324                       # mshr miss rate for ReadReq accesses
system.cpu.dcache.ReadReq_mshr_miss_rate::total     0.013324                       # mshr miss rate for ReadReq accesses
system.cpu.dcache.ReadReq_avg_mshr_miss_latency::.cpu.data 19704.531137                       # average ReadReq mshr miss latency
system.cpu.dcache.ReadReq_avg_mshr_miss_latency::total 19704.531137                       # average ReadReq mshr miss latency
system.cpu.dcache.WriteReq_hits::.cpu.data     12522339                       # number of WriteReq hits
system.cpu.dcache.WriteReq_hits::total       12522339                       # number of WriteReq hits
system.cpu.dcache.WriteReq_misses::.cpu.data       433888                       # number of WriteReq misses
system.cpu.dcache.WriteReq_misses::total       433888                       # number of WriteReq misses
system.cpu.dcache.WriteReq_miss_latency::.cpu.data  17390680000                       # number of WriteReq miss cycles
system.cpu.dcache.WriteReq_miss_latency::total  17390680000                       # number of WriteReq miss cycles
system.cpu.dcache.WriteReq_accesses::.cpu.data     12956227                       # number of WriteReq accesses(hits+misses)
system.cpu.dcache.WriteReq_accesses::total     12956227                       # number of WriteReq accesses(hits+misses)
system.cpu.dcache.WriteReq_miss_rate::.cpu.data     0.033489                       # miss rate for WriteReq accesses
system.cpu.dcache.WriteReq_miss_rate::total     0.033489                       # miss rate for WriteReq accesses
system.cpu.dcache.WriteReq_avg_miss_latency::.cpu.data 40081.034737                       # average WriteReq miss latency
system.cpu.dcache.WriteReq_avg_miss_latency::total 40081.034737                       # average WriteReq miss latency
system.cpu.dcache.WriteReq_mshr_hits::.cpu.data        63927                       # number of WriteReq MSHR hits
system.cpu.dcache.WriteReq_mshr_hits::total        63927                       # number of WriteReq MSHR hits
system.cpu.dcache.WriteReq_mshr_misses::.cpu.data       369961                       # number of WriteReq MSHR misses
system.cpu.dcache.WriteReq_mshr_misses::total       369961                       # number of WriteReq MSHR misses
system.cpu.dcache.WriteReq_mshr_miss_latency::.cpu.data  15301899500                       # number of WriteReq MSHR miss cycles
system.cpu.dcache.WriteReq_mshr_miss_latency::total  15301899500                       # number of WriteReq MSHR miss cycles
system.cpu.dcache.WriteReq_mshr_miss_rate::.cpu.data     0.028555                       # mshr miss rate for WriteReq accesses
system.cpu.dcache.WriteReq_mshr_miss_rate::total     0.028555                       # mshr miss rate for WriteReq accesses
system.cpu.dcache.WriteReq_avg_mshr_miss_latency::.cpu.data 41360.844792                       # average WriteReq mshr miss latency
system.cpu.dcache.WriteReq_avg_mshr_miss_latency::total 41360.844792                       # average WriteReq mshr miss latency
system.cpu.dcache.SoftPFReq_hits::.cpu.data           14                       # number of SoftPFReq hits
system.cpu.dcache.SoftPFReq_hits::total            14                       # number of SoftPFReq hits
system.cpu.dcache.SoftPFReq_misses::.cpu.data           16                       # number of SoftPFReq misses
system.cpu.dcache.SoftPFReq_misses::total           16                       # number of SoftPFReq misses
system.cpu.dcache.SoftPFReq_accesses::.cpu.data           30                       # number of SoftPFReq accesses(hits+misses)
system.cpu.dcache.SoftPFReq_accesses::total           30                       # number of SoftPFReq accesses(hits+misses)
system.cpu.dcache.SoftPFReq_miss_rate::.cpu.data     0.533333                       # miss rate for SoftPFReq accesses
system.cpu.dcache.SoftPFReq_miss_rate::total     0.533333                       # miss rate for SoftPFReq accesses
system.cpu.dcache.SoftPFReq_mshr_misses::.cpu.data           11                       # number of SoftPFReq MSHR misses
system.cpu.dcache.SoftPFReq_mshr_misses::total           11                       # number of SoftPFReq MSHR misses
system.cpu.dcache.SoftPFReq_mshr_miss_latency::.cpu.data       945500                       # number of SoftPFReq MSHR miss cycles
system.cpu.dcache.SoftPFReq_mshr_miss_latency::total       945500                       # number of SoftPFReq MSHR miss cycles
system.cpu.dcache.SoftPFReq_mshr_miss_rate::.cpu.data     0.366667                       # mshr miss rate for SoftPFReq accesses
system.cpu.dcache.SoftPFReq_mshr_miss_rate::total     0.366667                       # mshr miss rate for SoftPFReq accesses
system.cpu.dcache.SoftPFReq_avg_mshr_miss_latency::.cpu.data 85954.545455                       # average SoftPFReq mshr miss latency
system.cpu.dcache.SoftPFReq_avg_mshr_miss_latency::total 85954.545455                       # average SoftPFReq mshr miss latency
system.cpu.dcache.LoadLockedReq_hits::.cpu.data           61                       # number of LoadLockedReq hits
system.cpu.dcache.LoadLockedReq_hits::total           61                       # number of LoadLockedReq hits
system.cpu.dcache.LoadLockedReq_misses::.cpu.data            1                       # number of LoadLockedReq misses
system.cpu.dcache.LoadLockedReq_misses::total            1                       # number of LoadLockedReq misses
system.cpu.dcache.LoadLockedReq_miss_latency::.cpu.data        72000                       # number of LoadLockedReq miss cycles
system.cpu.dcache.LoadLockedReq_miss_latency::total        72000                       # number of LoadLockedReq miss cycles
system.cpu.dcache.LoadLockedReq_accesses::.cpu.data           62                       # number of LoadLockedReq accesses(hits+misses)
system.cpu.dcache.LoadLockedReq_accesses::total           62                       # number of LoadLockedReq accesses(hits+misses)
system.cpu.dcache.LoadLockedReq_miss_rate::.cpu.data     0.016129                       # miss rate for LoadLockedReq accesses
system.cpu.dcache.LoadLockedReq_miss_rate::total     0.016129                       # miss rate for LoadLockedReq accesses
system.cpu.dcache.LoadLockedReq_avg_miss_latency::.cpu.data        72000                       # average LoadLockedReq miss latency
system.cpu.dcache.LoadLockedReq_avg_miss_latency::total        72000                       # average LoadLockedReq miss latency
system.cpu.dcache.LoadLockedReq_mshr_misses::.cpu.data            1                       # number of LoadLockedReq MSHR misses
system.cpu.dcache.LoadLockedReq_mshr_misses::total            1                       # number of LoadLockedReq MSHR misses
system.cpu.dcache.LoadLockedReq_mshr_miss_latency::.cpu.data        71000                       # number of LoadLockedReq MSHR miss cycles
system.cpu.dcache.LoadLockedReq_mshr_miss_latency::total        71000                       # number of LoadLockedReq MSHR miss cycles
system.cpu.dcache.LoadLockedReq_mshr_miss_rate::.cpu.data     0.016129                       # mshr miss rate for LoadLockedReq accesses
system.cpu.dcache.LoadLockedReq_mshr_miss_rate::total     0.016129                       # mshr miss rate for LoadLockedReq accesses
system.cpu.dcache.LoadLockedReq_avg_mshr_miss_latency::.cpu.data        71000                       # average LoadLockedReq mshr miss latency
system.cpu.dcache.LoadLockedReq_avg_mshr_miss_latency::total        71000                       # average LoadLockedReq mshr miss latency
system.cpu.dcache.StoreCondReq_hits::.cpu.data           62                       # number of StoreCondReq hits
system.cpu.dcache.StoreCondReq_hits::total           62                       # number of StoreCondReq hits
system.cpu.dcache.StoreCondReq_accesses::.cpu.data           62                       # number of StoreCondReq accesses(hits+misses)
system.cpu.dcache.StoreCondReq_accesses::total           62                       # number of StoreCondReq accesses(hits+misses)
system.cpu.dcache.power_state.pwrStateResidencyTicks::UNDEFINED  86016895500                       # Cumulative time (in ticks) in various power states
system.cpu.dcache.tags.tagsinuse           505.025602                       # Cycle average of tags in use
system.cpu.dcache.tags.total_refs            58283344                       # Total number of references to valid blocks.
system.cpu.dcache.tags.sampled_refs            974765                       # Sample count of references to valid blocks.
system.cpu.dcache.tags.avg_refs             59.792200                       # Average number of references to valid blocks.
system.cpu.dcache.tags.warmup_cycle            176500                       # Cycle when the warmup percentage was hit.
system.cpu.dcache.tags.occ_blocks::.cpu.data   505.025602                       # Average occupied blocks per requestor
system.cpu.dcache.tags.occ_percent::.cpu.data     0.986378                       # Average percentage of cache occupancy
system.cpu.dcache.tags.occ_percent::total     0.986378                       # Average percentage of cache occupancy
system.cpu.dcache.tags.occ_task_id_blocks::1024          512                       # Occupied blocks per task id
system.cpu.dcache.tags.age_task_id_blocks_1024::0          331                       # Occupied blocks per task id
system.cpu.dcache.tags.age_task_id_blocks_1024::1          132                       # Occupied blocks per task id
system.cpu.dcache.tags.age_task_id_blocks_1024::2           48                       # Occupied blocks per task id
system.cpu.dcache.tags.age_task_id_blocks_1024::3            1                       # Occupied blocks per task id
system.cpu.dcache.tags.occ_task_id_percent::1024            1                       # Percentage of cache occupancy per task id
system.cpu.dcache.tags.tag_accesses         117669429                       # Number of tag accesses
system.cpu.dcache.tags.data_accesses        117669429                       # Number of data accesses
system.cpu.dcache.tags.power_state.pwrStateResidencyTicks::UNDEFINED  86016895500                       # Cumulative time (in ticks) in various power states
system.cpu.dtb.instHits                             0                       # ITB inst hits
system.cpu.dtb.instMisses                           0                       # ITB inst misses
system.cpu.dtb.readHits                             0                       # DTB read hits
system.cpu.dtb.readMisses                           0                       # DTB read misses
system.cpu.dtb.writeHits                            0                       # DTB write hits
system.cpu.dtb.writeMisses                          0                       # DTB write misses
system.cpu.dtb.inserts                              0                       # Number of times an entry is inserted into the TLB
system.cpu.dtb.flushTlb                             0                       # Number of times complete TLB was flushed
system.cpu.dtb.flushTlbMva                          0                       # Number of times TLB was flushed by MVA
system.cpu.dtb.flushTlbMvaAsid                      0                       # Number of times TLB was flushed by MVA & ASID
system.cpu.dtb.flushTlbAsid                         0                       # Number of times TLB was flushed by ASID
system.cpu.dtb.flushedEntries                       0                       # Number of entries that have been flushed from TLB
system.cpu.dtb.alignFaults                          0                       # Number of TLB faults due to alignment restrictions
system.cpu.dtb.prefetchFaults                       0                       # Number of TLB faults due to prefetch
system.cpu.dtb.domainFaults                         0                       # Number of TLB faults due to domain restrictions
system.cpu.dtb.permsFaults                          0                       # Number of TLB faults due to permissions restrictions
system.cpu.dtb.readAccesses                         0                       # DTB read accesses
system.cpu.dtb.writeAccesses                        0                       # DTB write accesses
system.cpu.dtb.instAccesses                         0                       # ITB inst accesses
system.cpu.dtb.hits                                 0                       # Total TLB (inst and data) hits
system.cpu.dtb.misses                               0                       # Total TLB (inst and data) misses
system.cpu.dtb.accesses                             0                       # Total TLB (inst and data) accesses
system.cpu.dtb.stage2_mmu.stage2_tlb.instHits            0                       # ITB inst hits
system.cpu.dtb.stage2_mmu.stage2_tlb.instMisses            0                       # ITB inst misses
system.cpu.dtb.stage2_mmu.stage2_tlb.readHits            0                       # DTB read hits
system.cpu.dtb.stage2_mmu.stage2_tlb.readMisses            0                       # DTB read misses
system.cpu.dtb.stage2_mmu.stage2_tlb.writeHits            0                       # DTB write hits
system.cpu.dtb.stage2_mmu.stage2_tlb.writeMisses            0                       # DTB write misses
system.cpu.dtb.stage2_mmu.stage2_tlb.inserts            0                       # Number of times an entry is inserted into the TLB
system.cpu.dtb.stage2_mmu.stage2_tlb.flushTlb            0                       # Number of times complete TLB was flushed
system.cpu.dtb.stage2_mmu.stage2_tlb.flushTlbMva            0                       # Number of times TLB was flushed by MVA
system.cpu.dtb.stage2_mmu.stage2_tlb.flushTlbMvaAsid            0                       # Number of times TLB was flushed by MVA & ASID
system.cpu.dtb.stage2_mmu.stage2_tlb.flushTlbAsid            0                       # Number of times TLB was flushed by ASID
system.cpu.dtb.stage2_mmu.stage2_tlb.flushedEntries            0                       # Number of entries that have been flushed from TLB
system.cpu.dtb.stage2_mmu.stage2_tlb.alignFaults            0                       # Number of TLB faults due to alignment restrictions
system.cpu.dtb.stage2_mmu.stage2_tlb.prefetchFaults            0                       # Number of TLB faults due to prefetch
system.cpu.dtb.stage2_mmu.stage2_tlb.domainFaults            0                       # Number of TLB faults due to domain restrictions
system.cpu.dtb.stage2_mmu.stage2_tlb.permsFaults            0                       # Number of TLB faults due to permissions restrictions
system.cpu.dtb.stage2_mmu.stage2_tlb.readAccesses            0                       # DTB read accesses
system.cpu.dtb.stage2_mmu.stage2_tlb.writeAccesses            0                       # DTB write accesses
system.cpu.dtb.stage2_mmu.stage2_tlb.instAccesses            0                       # ITB inst accesses
system.cpu.dtb.stage2_mmu.stage2_tlb.hits            0                       # Total TLB (inst and data) hits
system.cpu.dtb.stage2_mmu.stage2_tlb.misses            0                       # Total TLB (inst and data) misses
system.cpu.dtb.stage2_mmu.stage2_tlb.accesses            0                       # Total TLB (inst and data) accesses
system.cpu.dtb.stage2_mmu.stage2_tlb.walker.walks            0                       # Table walker walks requested
system.cpu.dtb.stage2_mmu.stage2_tlb.walker.requestOrigin_Requested::Data            0                       # Table walker requests started/completed, data/inst
system.cpu.dtb.stage2_mmu.stage2_tlb.walker.requestOrigin_Requested::Inst            0                       # Table walker requests started/completed, data/inst
system.cpu.dtb.stage2_mmu.stage2_tlb.walker.requestOrigin_Requested::total            0                       # Table walker requests started/completed, data/inst
system.cpu.dtb.stage2_mmu.stage2_tlb.walker.requestOrigin_Completed::Data            0                       # Table walker requests started/completed, data/inst
system.cpu.dtb.stage2_mmu.stage2_tlb.walker.requestOrigin_Completed::Inst            0                       # Table walker requests started/completed, data/inst
system.cpu.dtb.stage2_mmu.stage2_tlb.walker.requestOrigin_Completed::total            0                       # Table walker requests started/completed, data/inst
system.cpu.dtb.stage2_mmu.stage2_tlb.walker.requestOrigin::total            0                       # Table walker requests started/completed, data/inst
system.cpu.dtb.stage2_mmu.stage2_tlb.walker.power_state.pwrStateResidencyTicks::UNDEFINED  86016895500                       # Cumulative time (in ticks) in various power states
system.cpu.dtb.walker.walks                         0                       # Table walker walks requested
system.cpu.dtb.walker.requestOrigin_Requested::Data            0                       # Table walker requests started/completed, data/inst
system.cpu.dtb.walker.requestOrigin_Requested::Inst            0                       # Table walker requests started/completed, data/inst
system.cpu.dtb.walker.requestOrigin_Requested::total            0                       # Table walker requests started/completed, data/inst
system.cpu.dtb.walker.requestOrigin_Completed::Data            0                       # Table walker requests started/completed, data/inst
system.cpu.dtb.walker.requestOrigin_Completed::Inst            0                       # Table walker requests started/completed, data/inst
system.cpu.dtb.walker.requestOrigin_Completed::total            0                       # Table walker requests started/completed, data/inst
system.cpu.dtb.walker.requestOrigin::total            0                       # Table walker requests started/completed, data/inst
system.cpu.dtb.walker.power_state.pwrStateResidencyTicks::UNDEFINED  86016895500                       # Cumulative time (in ticks) in various power states
system.cpu.fetch2.intInstructions            35336281                       # Number of integer instructions successfully decoded
system.cpu.fetch2.fpInstructions                    0                       # Number of floating point instructions successfully decoded
system.cpu.fetch2.vecInstructions                   0                       # Number of SIMD instructions successfully decoded
system.cpu.fetch2.loadInstructions           49023314                       # Number of memory load instructions successfully decoded
system.cpu.fetch2.storeInstructions          13269388                       # Number of memory store instructions successfully decoded
system.cpu.fetch2.amoInstructions                   0                       # Number of memory atomic instructions successfully decoded
system.cpu.icache.demand_hits::.cpu.inst     18256149                       # number of demand (read+write) hits
system.cpu.icache.demand_hits::total         18256149                       # number of demand (read+write) hits
system.cpu.icache.overall_hits::.cpu.inst     18256149                       # number of overall hits
system.cpu.icache.overall_hits::total        18256149                       # number of overall hits
system.cpu.icache.demand_misses::.cpu.inst          871                       # number of demand (read+write) misses
system.cpu.icache.demand_misses::total            871                       # number of demand (read+write) misses
system.cpu.icache.overall_misses::.cpu.inst          871                       # number of overall misses
system.cpu.icache.overall_misses::total           871                       # number of overall misses
system.cpu.icache.demand_miss_latency::.cpu.inst     66146000                       # number of demand (read+write) miss cycles
system.cpu.icache.demand_miss_latency::total     66146000                       # number of demand (read+write) miss cycles
system.cpu.icache.overall_miss_latency::.cpu.inst     66146000                       # number of overall miss cycles
system.cpu.icache.overall_miss_latency::total     66146000                       # number of overall miss cycles
system.cpu.icache.demand_accesses::.cpu.inst     18257020                       # number of demand (read+write) accesses
system.cpu.icache.demand_accesses::total     18257020                       # number of demand (read+write) accesses
system.cpu.icache.overall_accesses::.cpu.inst     18257020                       # number of overall (read+write) accesses
system.cpu.icache.overall_accesses::total     18257020                       # number of overall (read+write) accesses
system.cpu.icache.demand_miss_rate::.cpu.inst     0.000048                       # miss rate for demand accesses
system.cpu.icache.demand_miss_rate::total     0.000048                       # miss rate for demand accesses
system.cpu.icache.overall_miss_rate::.cpu.inst     0.000048                       # miss rate for overall accesses
system.cpu.icache.overall_miss_rate::total     0.000048                       # miss rate for overall accesses
system.cpu.icache.demand_avg_miss_latency::.cpu.inst 75942.594719                       # average overall miss latency
system.cpu.icache.demand_avg_miss_latency::total 75942.594719                       # average overall miss latency
system.cpu.icache.overall_avg_miss_latency::.cpu.inst 75942.594719                       # average overall miss latency
system.cpu.icache.overall_avg_miss_latency::total 75942.594719                       # average overall miss latency
system.cpu.icache.blocked_cycles::no_mshrs            0                       # number of cycles access was blocked
system.cpu.icache.blocked_cycles::no_targets            0                       # number of cycles access was blocked
system.cpu.icache.blocked::no_mshrs                 0                       # number of cycles access was blocked
system.cpu.icache.blocked::no_targets               0                       # number of cycles access was blocked
system.cpu.icache.avg_blocked_cycles::no_mshrs          nan                       # average number of cycles each access was blocked
system.cpu.icache.avg_blocked_cycles::no_targets          nan                       # average number of cycles each access was blocked
system.cpu.icache.writebacks::.writebacks          411                       # number of writebacks
system.cpu.icache.writebacks::total               411                       # number of writebacks
system.cpu.icache.demand_mshr_misses::.cpu.inst          871                       # number of demand (read+write) MSHR misses
system.cpu.icache.demand_mshr_misses::total          871                       # number of demand (read+write) MSHR misses
system.cpu.icache.overall_mshr_misses::.cpu.inst          871                       # number of overall MSHR misses
system.cpu.icache.overall_mshr_misses::total          871                       # number of overall MSHR misses
system.cpu.icache.demand_mshr_miss_latency::.cpu.inst     65275000                       # number of demand (read+write) MSHR miss cycles
system.cpu.icache.demand_mshr_miss_latency::total     65275000                       # number of demand (read+write) MSHR miss cycles
system.cpu.icache.overall_mshr_miss_latency::.cpu.inst     65275000                       # number of overall MSHR miss cycles
system.cpu.icache.overall_mshr_miss_latency::total     65275000                       # number of overall MSHR miss cycles
system.cpu.icache.demand_mshr_miss_rate::.cpu.inst     0.000048                       # mshr miss rate for demand accesses
system.cpu.icache.demand_mshr_miss_rate::total     0.000048                       # mshr miss rate for demand accesses
system.cpu.icache.overall_mshr_miss_rate::.cpu.inst     0.000048                       # mshr miss rate for overall accesses
system.cpu.icache.overall_mshr_miss_rate::total     0.000048                       # mshr miss rate for overall accesses
system.cpu.icache.demand_avg_mshr_miss_latency::.cpu.inst 74942.594719                       # average overall mshr miss latency
system.cpu.icache.demand_avg_mshr_miss_latency::total 74942.594719                       # average overall mshr miss latency
system.cpu.icache.overall_avg_mshr_miss_latency::.cpu.inst 74942.594719                       # average overall mshr miss latency
system.cpu.icache.overall_avg_mshr_miss_latency::total 74942.594719                       # average overall mshr miss latency
system.cpu.icache.replacements                    411                       # number of replacements
system.cpu.icache.ReadReq_hits::.cpu.inst     18256149                       # number of ReadReq hits
system.cpu.icache.ReadReq_hits::total        18256149                       # number of ReadReq hits
system.cpu.icache.ReadReq_misses::.cpu.inst          871                       # number of ReadReq misses
system.cpu.icache.ReadReq_misses::total           871                       # number of ReadReq misses
system.cpu.icache.ReadReq_miss_latency::.cpu.inst     66146000                       # number of ReadReq miss cycles
system.cpu.icache.ReadReq_miss_latency::total     66146000                       # number of ReadReq miss cycles
system.cpu.icache.ReadReq_accesses::.cpu.inst     18257020                       # number of ReadReq accesses(hits+misses)
system.cpu.icache.ReadReq_accesses::total     18257020                       # number of ReadReq accesses(hits+misses)
system.cpu.icache.ReadReq_miss_rate::.cpu.inst     0.000048                       # miss rate for ReadReq accesses
system.cpu.icache.ReadReq_miss_rate::total     0.000048                       # miss rate for ReadReq accesses
system.cpu.icache.ReadReq_avg_miss_latency::.cpu.inst 75942.594719                       # average ReadReq miss latency
system.cpu.icache.ReadReq_avg_miss_latency::total 75942.594719                       # average ReadReq miss latency
system.cpu.icache.ReadReq_mshr_misses::.cpu.inst          871                       # number of ReadReq MSHR misses
system.cpu.icache.ReadReq_mshr_misses::total          871                       # number of ReadReq MSHR misses
system.cpu.icache.ReadReq_mshr_miss_latency::.cpu.inst     65275000                       # number of ReadReq MSHR miss cycles
system.cpu.icache.ReadReq_mshr_miss_latency::total     65275000                       # number of ReadReq MSHR miss cycles
system.cpu.icache.ReadReq_mshr_miss_rate::.cpu.inst     0.000048                       # mshr miss rate for ReadReq accesses
system.cpu.icache.ReadReq_mshr_miss_rate::total     0.000048                       # mshr miss rate for ReadReq accesses
system.cpu.icache.ReadReq_avg_mshr_miss_latency::.cpu.inst 74942.594719                       # average ReadReq mshr miss latency
system.cpu.icache.ReadReq_avg_mshr_miss_latency::total 74942.594719                       # average ReadReq mshr miss latency
system.cpu.icache.power_state.pwrStateResidencyTicks::UNDEFINED  86016895500                       # Cumulative time (in ticks) in various power states
system.cpu.icache.tags.tagsinuse           425.988340                       # Cycle average of tags in use
system.cpu.icache.tags.total_refs            18257020                       # Total number of references to valid blocks.
system.cpu.icache.tags.sampled_refs               871                       # Sample count of references to valid blocks.
system.cpu.icache.tags.avg_refs          20960.987371                       # Average number of references to valid blocks.
system.cpu.icache.tags.warmup_cycle             87500                       # Cycle when the warmup percentage was hit.
system.cpu.icache.tags.occ_blocks::.cpu.inst   425.988340                       # Average occupied blocks per requestor
system.cpu.icache.tags.occ_percent::.cpu.inst     0.832008                       # Average percentage of cache occupancy
system.cpu.icache.tags.occ_percent::total     0.832008                       # Average percentage of cache occupancy
system.cpu.icache.tags.occ_task_id_blocks::1024          460                       # Occupied blocks per task id
system.cpu.icache.tags.age_task_id_blocks_1024::4          460                       # Occupied blocks per task id
system.cpu.icache.tags.occ_task_id_percent::1024     0.898438                       # Percentage of cache occupancy per task id
system.cpu.icache.tags.tag_accesses          36514911                       # Number of tag accesses
system.cpu.icache.tags.data_accesses         36514911                       # Number of data accesses
system.cpu.icache.tags.power_state.pwrStateResidencyTicks::UNDEFINED  86016895500                       # Cumulative time (in ticks) in various power states
system.cpu.itb.instHits                             0                       # ITB inst hits
system.cpu.itb.instMisses                           0                       # ITB inst misses
system.cpu.itb.readHits                             0                       # DTB read hits
system.cpu.itb.readMisses                           0                       # DTB read misses
system.cpu.itb.writeHits                            0                       # DTB write hits
system.cpu.itb.writeMisses                          0                       # DTB write misses
system.cpu.itb.inserts                              0                       # Number of times an entry is inserted into the TLB
system.cpu.itb.flushTlb                             0                       # Number of times complete TLB was flushed
system.cpu.itb.flushTlbMva                          0                       # Number of times TLB was flushed by MVA
system.cpu.itb.flushTlbMvaAsid                      0                       # Number of times TLB was flushed by MVA & ASID
system.cpu.itb.flushTlbAsid                         0                       # Number of times TLB was flushed by ASID
system.cpu.itb.flushedEntries                       0                       # Number of entries that have been flushed from TLB
system.cpu.itb.alignFaults                          0                       # Number of TLB faults due to alignment restrictions
system.cpu.itb.prefetchFaults                       0                       # Number of TLB faults due to prefetch
system.cpu.itb.domainFaults                         0                       # Number of TLB faults due to domain restrictions
system.cpu.itb.permsFaults                          0                       # Number of TLB faults due to permissions restrictions
system.cpu.itb.readAccesses                         0                       # DTB read accesses
system.cpu.itb.writeAccesses                        0                       # DTB write accesses
system.cpu.itb.instAccesses                         0                       # ITB inst accesses
system.cpu.itb.hits                                 0                       # Total TLB (inst and data) hits
system.cpu.itb.misses                               0                       # Total TLB (inst and data) misses
system.cpu.itb.accesses                             0                       # Total TLB (inst and data) accesses
system.cpu.itb.stage2_mmu.stage2_tlb.instHits            0                       # ITB inst hits
system.cpu.itb.stage2_mmu.stage2_tlb.instMisses            0                       # ITB inst misses
system.cpu.itb.stage2_mmu.stage2_tlb.readHits            0                       # DTB read hits
system.cpu.itb.stage2_mmu.stage2_tlb.readMisses            0                       # DTB read misses
system.cpu.itb.stage2_mmu.stage2_tlb.writeHits            0                       # DTB write hits
system.cpu.itb.stage2_mmu.stage2_tlb.writeMisses            0                       # DTB write misses
system.cpu.itb.stage2_mmu.stage2_tlb.inserts            0                       # Number of times an entry is inserted into the TLB
system.cpu.itb.stage2_mmu.stage2_tlb.flushTlb            0                       # Number of times complete TLB was flushed
system.cpu.itb.stage2_mmu.stage2_tlb.flushTlbMva            0                       # Number of times TLB was flushed by MVA
system.cpu.itb.stage2_mmu.stage2_tlb.flushTlbMvaAsid            0                       # Number of times TLB was flushed by MVA & ASID
system.cpu.itb.stage2_mmu.stage2_tlb.flushTlbAsid            0                       # Number of times TLB was flushed by ASID
system.cpu.itb.stage2_mmu.stage2_tlb.flushedEntries            0                       # Number of entries that have been flushed from TLB
system.cpu.itb.stage2_mmu.stage2_tlb.alignFaults            0                       # Number of TLB faults due to alignment restrictions
system.cpu.itb.stage2_mmu.stage2_tlb.prefetchFaults            0                       # Number of TLB faults due to prefetch
system.cpu.itb.stage2_mmu.stage2_tlb.domainFaults            0                       # Number of TLB faults due to domain restrictions
system.cpu.itb.stage2_mmu.stage2_tlb.permsFaults            0                       # Number of TLB faults due to permissions restrictions
system.cpu.itb.stage2_mmu.stage2_tlb.readAccesses            0                       # DTB read accesses
system.cpu.itb.stage2_mmu.stage2_tlb.writeAccesses            0                       # DTB write accesses
system.cpu.itb.stage2_mmu.stage2_tlb.instAccesses            0                       # ITB inst accesses
system.cpu.itb.stage2_mmu.stage2_tlb.hits            0                       # Total TLB (inst and data) hits
system.cpu.itb.stage2_mmu.stage2_tlb.misses            0                       # Total TLB (inst and data) misses
system.cpu.itb.stage2_mmu.stage2_tlb.accesses            0                       # Total TLB (inst and data) accesses
system.cpu.itb.stage2_mmu.stage2_tlb.walker.walks            0                       # Table walker walks requested
system.cpu.itb.stage2_mmu.stage2_tlb.walker.requestOrigin_Requested::Data            0                       # Table walker requests started/completed, data/inst
system.cpu.itb.stage2_mmu.stage2_tlb.walker.requestOrigin_Requested::Inst            0                       # Table walker requests started/completed, data/inst
system.cpu.itb.stage2_mmu.stage2_tlb.walker.requestOrigin_Requested::total            0                       # Table walker requests started/completed, data/inst
system.cpu.itb.stage2_mmu.stage2_tlb.walker.requestOrigin_Completed::Data            0                       # Table walker requests started/completed, data/inst
system.cpu.itb.stage2_mmu.stage2_tlb.walker.requestOrigin_Completed::Inst            0                       # Table walker requests started/completed, data/inst
system.cpu.itb.stage2_mmu.stage2_tlb.walker.requestOrigin_Completed::total            0                       # Table walker requests started/completed, data/inst
system.cpu.itb.stage2_mmu.stage2_tlb.walker.requestOrigin::total            0                       # Table walker requests started/completed, data/inst
system.cpu.itb.stage2_mmu.stage2_tlb.walker.power_state.pwrStateResidencyTicks::UNDEFINED  86016895500                       # Cumulative time (in ticks) in various power states
system.cpu.itb.walker.walks                         0                       # Table walker walks requested
system.cpu.itb.walker.requestOrigin_Requested::Data            0                       # Table walker requests started/completed, data/inst
system.cpu.itb.walker.requestOrigin_Requested::Inst            0                       # Table walker requests started/completed, data/inst
system.cpu.itb.walker.requestOrigin_Requested::total            0                       # Table walker requests started/completed, data/inst
system.cpu.itb.walker.requestOrigin_Completed::Data            0                       # Table walker requests started/completed, data/inst
system.cpu.itb.walker.requestOrigin_Completed::Inst            0                       # Table walker requests started/completed, data/inst
system.cpu.itb.walker.requestOrigin_Completed::total            0                       # Table walker requests started/completed, data/inst
system.cpu.itb.walker.requestOrigin::total            0                       # Table walker requests started/completed, data/inst
system.cpu.itb.walker.power_state.pwrStateResidencyTicks::UNDEFINED  86016895500                       # Cumulative time (in ticks) in various power states
system.cpu.power_state.pwrStateResidencyTicks::ON  86016895500                       # Cumulative time (in ticks) in various power states
system.cpu.thread_0.numInsts                100000000                       # Number of Instructions committed
system.cpu.thread_0.numOps                  100245691                       # Number of Ops committed
system.cpu.thread_0.numMemRefs                      0                       # Number of Memory References
system.cpu_clk_domain.clock                       500                       # Clock period in ticks
system.cpu_voltage_domain.voltage                   1                       # Voltage in Volts
system.l2.demand_hits::.cpu.inst                   52                       # number of demand (read+write) hits
system.l2.demand_hits::.cpu.data               765300                       # number of demand (read+write) hits
system.l2.demand_hits::total                   765352                       # number of demand (read+write) hits
system.l2.overall_hits::.cpu.inst                  52                       # number of overall hits
system.l2.overall_hits::.cpu.data              765300                       # number of overall hits
system.l2.overall_hits::total                  765352                       # number of overall hits
system.l2.demand_misses::.cpu.inst                819                       # number of demand (read+write) misses
system.l2.demand_misses::.cpu.data             209465                       # number of demand (read+write) misses
system.l2.demand_misses::total                 210284                       # number of demand (read+write) misses
system.l2.overall_misses::.cpu.inst               819                       # number of overall misses
system.l2.overall_misses::.cpu.data            209465                       # number of overall misses
system.l2.overall_misses::total                210284                       # number of overall misses
system.l2.demand_miss_latency::.cpu.inst     63413500                       # number of demand (read+write) miss cycles
system.l2.demand_miss_latency::.cpu.data  17693835000                       # number of demand (read+write) miss cycles
system.l2.demand_miss_latency::total      17757248500                       # number of demand (read+write) miss cycles
system.l2.overall_miss_latency::.cpu.inst     63413500                       # number of overall miss cycles
system.l2.overall_miss_latency::.cpu.data  17693835000                       # number of overall miss cycles
system.l2.overall_miss_latency::total     17757248500                       # number of overall miss cycles
system.l2.demand_accesses::.cpu.inst              871                       # number of demand (read+write) accesses
system.l2.demand_accesses::.cpu.data           974765                       # number of demand (read+write) accesses
system.l2.demand_accesses::total               975636                       # number of demand (read+write) accesses
system.l2.overall_accesses::.cpu.inst             871                       # number of overall (read+write) accesses
system.l2.overall_accesses::.cpu.data          974765                       # number of overall (read+write) accesses
system.l2.overall_accesses::total              975636                       # number of overall (read+write) accesses
system.l2.demand_miss_rate::.cpu.inst        0.940299                       # miss rate for demand accesses
system.l2.demand_miss_rate::.cpu.data        0.214888                       # miss rate for demand accesses
system.l2.demand_miss_rate::total            0.215535                       # miss rate for demand accesses
system.l2.overall_miss_rate::.cpu.inst       0.940299                       # miss rate for overall accesses
system.l2.overall_miss_rate::.cpu.data       0.214888                       # miss rate for overall accesses
system.l2.overall_miss_rate::total           0.215535                       # miss rate for overall accesses
system.l2.demand_avg_miss_latency::.cpu.inst 77427.960928                       # average overall miss latency
system.l2.demand_avg_miss_latency::.cpu.data 84471.558494                       # average overall miss latency
system.l2.demand_avg_miss_latency::total 84444.125564                       # average overall miss latency
system.l2.overall_avg_miss_latency::.cpu.inst 77427.960928                       # average overall miss latency
system.l2.overall_avg_miss_latency::.cpu.data 84471.558494                       # average overall miss latency
system.l2.overall_avg_miss_latency::total 84444.125564                       # average overall miss latency
system.l2.blocked_cycles::no_mshrs                  0                       # number of cycles access was blocked
system.l2.blocked_cycles::no_targets                0                       # number of cycles access was blocked
system.l2.blocked::no_mshrs                         0                       # number of cycles access was blocked
system.l2.blocked::no_targets                       0                       # number of cycles access was blocked
system.l2.avg_blocked_cycles::no_mshrs            nan                       # average number of cycles each access was blocked
system.l2.avg_blocked_cycles::no_targets          nan                       # average number of cycles each access was blocked
system.l2.writebacks::.writebacks              118930                       # number of writebacks
system.l2.writebacks::total                    118930                       # number of writebacks
system.l2.demand_mshr_hits::.cpu.data               2                       # number of demand (read+write) MSHR hits
system.l2.demand_mshr_hits::total                   2                       # number of demand (read+write) MSHR hits
system.l2.overall_mshr_hits::.cpu.data              2                       # number of overall MSHR hits
system.l2.overall_mshr_hits::total                  2                       # number of overall MSHR hits
system.l2.demand_mshr_misses::.cpu.inst           819                       # number of demand (read+write) MSHR misses
system.l2.demand_mshr_misses::.cpu.data        209463                       # number of demand (read+write) MSHR misses
system.l2.demand_mshr_misses::total            210282                       # number of demand (read+write) MSHR misses
system.l2.overall_mshr_misses::.cpu.inst          819                       # number of overall MSHR misses
system.l2.overall_mshr_misses::.cpu.data       209463                       # number of overall MSHR misses
system.l2.overall_mshr_misses::total           210282                       # number of overall MSHR misses
system.l2.demand_mshr_miss_latency::.cpu.inst     55223500                       # number of demand (read+write) MSHR miss cycles
system.l2.demand_mshr_miss_latency::.cpu.data  15599073500                       # number of demand (read+write) MSHR miss cycles
system.l2.demand_mshr_miss_latency::total  15654297000                       # number of demand (read+write) MSHR miss cycles
system.l2.overall_mshr_miss_latency::.cpu.inst     55223500                       # number of overall MSHR miss cycles
system.l2.overall_mshr_miss_latency::.cpu.data  15599073500                       # number of overall MSHR miss cycles
system.l2.overall_mshr_miss_latency::total  15654297000                       # number of overall MSHR miss cycles
system.l2.demand_mshr_miss_rate::.cpu.inst     0.940299                       # mshr miss rate for demand accesses
system.l2.demand_mshr_miss_rate::.cpu.data     0.214886                       # mshr miss rate for demand accesses
system.l2.demand_mshr_miss_rate::total       0.215533                       # mshr miss rate for demand accesses
system.l2.overall_mshr_miss_rate::.cpu.inst     0.940299                       # mshr miss rate for overall accesses
system.l2.overall_mshr_miss_rate::.cpu.data     0.214886                       # mshr miss rate for overall accesses
system.l2.overall_mshr_miss_rate::total      0.215533                       # mshr miss rate for overall accesses
system.l2.demand_avg_mshr_miss_latency::.cpu.inst 67427.960928                       # average overall mshr miss latency
system.l2.demand_avg_mshr_miss_latency::.cpu.data 74471.737252                       # average overall mshr miss latency
system.l2.demand_avg_mshr_miss_latency::total 74444.303364                       # average overall mshr miss latency
system.l2.overall_avg_mshr_miss_latency::.cpu.inst 67427.960928                       # average overall mshr miss latency
system.l2.overall_avg_mshr_miss_latency::.cpu.data 74471.737252                       # average overall mshr miss latency
system.l2.overall_avg_mshr_miss_latency::total 74444.303364                       # average overall mshr miss latency
system.l2.replacements                         177773                       # number of replacements
system.l2.WritebackDirty_hits::.writebacks       860760                       # number of WritebackDirty hits
system.l2.WritebackDirty_hits::total           860760                       # number of WritebackDirty hits
system.l2.WritebackDirty_accesses::.writebacks       860760                       # number of WritebackDirty accesses(hits+misses)
system.l2.WritebackDirty_accesses::total       860760                       # number of WritebackDirty accesses(hits+misses)
system.l2.WritebackClean_hits::.writebacks          398                       # number of WritebackClean hits
system.l2.WritebackClean_hits::total              398                       # number of WritebackClean hits
system.l2.WritebackClean_accesses::.writebacks          398                       # number of WritebackClean accesses(hits+misses)
system.l2.WritebackClean_accesses::total          398                       # number of WritebackClean accesses(hits+misses)
system.l2.ReadExReq_hits::.cpu.data            228437                       # number of ReadExReq hits
system.l2.ReadExReq_hits::total                228437                       # number of ReadExReq hits
system.l2.ReadExReq_misses::.cpu.data          141523                       # number of ReadExReq misses
system.l2.ReadExReq_misses::total              141523                       # number of ReadExReq misses
system.l2.ReadExReq_miss_latency::.cpu.data  12342063000                       # number of ReadExReq miss cycles
system.l2.ReadExReq_miss_latency::total   12342063000                       # number of ReadExReq miss cycles
system.l2.ReadExReq_accesses::.cpu.data        369960                       # number of ReadExReq accesses(hits+misses)
system.l2.ReadExReq_accesses::total            369960                       # number of ReadExReq accesses(hits+misses)
system.l2.ReadExReq_miss_rate::.cpu.data     0.382536                       # miss rate for ReadExReq accesses
system.l2.ReadExReq_miss_rate::total         0.382536                       # miss rate for ReadExReq accesses
system.l2.ReadExReq_avg_miss_latency::.cpu.data 87208.884775                       # average ReadExReq miss latency
system.l2.ReadExReq_avg_miss_latency::total 87208.884775                       # average ReadExReq miss latency
system.l2.ReadExReq_mshr_misses::.cpu.data       141523                       # number of ReadExReq MSHR misses
system.l2.ReadExReq_mshr_misses::total         141523                       # number of ReadExReq MSHR misses
system.l2.ReadExReq_mshr_miss_latency::.cpu.data  10926833000                       # number of ReadExReq MSHR miss cycles
system.l2.ReadExReq_mshr_miss_latency::total  10926833000                       # number of ReadExReq MSHR miss cycles
system.l2.ReadExReq_mshr_miss_rate::.cpu.data     0.382536                       # mshr miss rate for ReadExReq accesses
system.l2.ReadExReq_mshr_miss_rate::total     0.382536                       # mshr miss rate for ReadExReq accesses
system.l2.ReadExReq_avg_mshr_miss_latency::.cpu.data 77208.884775                       # average ReadExReq mshr miss latency
system.l2.ReadExReq_avg_mshr_miss_latency::total 77208.884775                       # average ReadExReq mshr miss latency
system.l2.ReadCleanReq_hits::.cpu.inst             52                       # number of ReadCleanReq hits
system.l2.ReadCleanReq_hits::total                 52                       # number of ReadCleanReq hits
system.l2.ReadCleanReq_misses::.cpu.inst          819                       # number of ReadCleanReq misses
system.l2.ReadCleanReq_misses::total              819                       # number of ReadCleanReq misses
system.l2.ReadCleanReq_miss_latency::.cpu.inst     63413500                       # number of ReadCleanReq miss cycles
system.l2.ReadCleanReq_miss_latency::total     63413500                       # number of ReadCleanReq miss cycles
system.l2.ReadCleanReq_accesses::.cpu.inst          871                       # number of ReadCleanReq accesses(hits+misses)
system.l2.ReadCleanReq_accesses::total            871                       # number of ReadCleanReq accesses(hits+misses)
system.l2.ReadCleanReq_miss_rate::.cpu.inst     0.940299                       # miss rate for ReadCleanReq accesses
system.l2.ReadCleanReq_miss_rate::total      0.940299                       # miss rate for ReadCleanReq accesses
system.l2.ReadCleanReq_avg_miss_latency::.cpu.inst 77427.960928                       # average ReadCleanReq miss latency
system.l2.ReadCleanReq_avg_miss_latency::total 77427.960928                       # average ReadCleanReq miss latency
system.l2.ReadCleanReq_mshr_misses::.cpu.inst          819                       # number of ReadCleanReq MSHR misses
system.l2.ReadCleanReq_mshr_misses::total          819                       # number of ReadCleanReq MSHR misses
system.l2.ReadCleanReq_mshr_miss_latency::.cpu.inst     55223500                       # number of ReadCleanReq MSHR miss cycles
system.l2.ReadCleanReq_mshr_miss_latency::total     55223500                       # number of ReadCleanReq MSHR miss cycles
system.l2.ReadCleanReq_mshr_miss_rate::.cpu.inst     0.940299                       # mshr miss rate for ReadCleanReq accesses
system.l2.ReadCleanReq_mshr_miss_rate::total     0.940299                       # mshr miss rate for ReadCleanReq accesses
system.l2.ReadCleanReq_avg_mshr_miss_latency::.cpu.inst 67427.960928                       # average ReadCleanReq mshr miss latency
system.l2.ReadCleanReq_avg_mshr_miss_latency::total 67427.960928                       # average ReadCleanReq mshr miss latency
system.l2.ReadSharedReq_hits::.cpu.data        536863                       # number of ReadSharedReq hits
system.l2.ReadSharedReq_hits::total            536863                       # number of ReadSharedReq hits
system.l2.ReadSharedReq_misses::.cpu.data        67942                       # number of ReadSharedReq misses
system.l2.ReadSharedReq_misses::total           67942                       # number of ReadSharedReq misses
system.l2.ReadSharedReq_miss_latency::.cpu.data   5351772000                       # number of ReadSharedReq miss cycles
system.l2.ReadSharedReq_miss_latency::total   5351772000                       # number of ReadSharedReq miss cycles
system.l2.ReadSharedReq_accesses::.cpu.data       604805                       # number of ReadSharedReq accesses(hits+misses)
system.l2.ReadSharedReq_accesses::total        604805                       # number of ReadSharedReq accesses(hits+misses)
system.l2.ReadSharedReq_miss_rate::.cpu.data     0.112337                       # miss rate for ReadSharedReq accesses
system.l2.ReadSharedReq_miss_rate::total     0.112337                       # miss rate for ReadSharedReq accesses
system.l2.ReadSharedReq_avg_miss_latency::.cpu.data 78769.715345                       # average ReadSharedReq miss latency
system.l2.ReadSharedReq_avg_miss_latency::total 78769.715345                       # average ReadSharedReq miss latency
system.l2.ReadSharedReq_mshr_hits::.cpu.data            2                       # number of ReadSharedReq MSHR hits
system.l2.ReadSharedReq_mshr_hits::total            2                       # number of ReadSharedReq MSHR hits
system.l2.ReadSharedReq_mshr_misses::.cpu.data        67940                       # number of ReadSharedReq MSHR misses
system.l2.ReadSharedReq_mshr_misses::total        67940                       # number of ReadSharedReq MSHR misses
system.l2.ReadSharedReq_mshr_miss_latency::.cpu.data   4672240500                       # number of ReadSharedReq MSHR miss cycles
system.l2.ReadSharedReq_mshr_miss_latency::total   4672240500                       # number of ReadSharedReq MSHR miss cycles
system.l2.ReadSharedReq_mshr_miss_rate::.cpu.data     0.112334                       # mshr miss rate for ReadSharedReq accesses
system.l2.ReadSharedReq_mshr_miss_rate::total     0.112334                       # mshr miss rate for ReadSharedReq accesses
system.l2.ReadSharedReq_avg_mshr_miss_latency::.cpu.data 68770.098616                       # average ReadSharedReq mshr miss latency
system.l2.ReadSharedReq_avg_mshr_miss_latency::total 68770.098616                       # average ReadSharedReq mshr miss latency
system.l2.power_state.pwrStateResidencyTicks::UNDEFINED  86016895500                       # Cumulative time (in ticks) in various power states
system.l2.tags.tagsinuse                 31934.796162                       # Cycle average of tags in use
system.l2.tags.total_refs                     1950172                       # Total number of references to valid blocks.
system.l2.tags.sampled_refs                    210541                       # Sample count of references to valid blocks.
system.l2.tags.avg_refs                      9.262671                       # Average number of references to valid blocks.
system.l2.tags.warmup_cycle                     77000                       # Cycle when the warmup percentage was hit.
system.l2.tags.occ_blocks::.writebacks      78.661472                       # Average occupied blocks per requestor
system.l2.tags.occ_blocks::.cpu.inst       121.464789                       # Average occupied blocks per requestor
system.l2.tags.occ_blocks::.cpu.data     31734.669901                       # Average occupied blocks per requestor
system.l2.tags.occ_percent::.writebacks      0.002401                       # Average percentage of cache occupancy
system.l2.tags.occ_percent::.cpu.inst        0.003707                       # Average percentage of cache occupancy
system.l2.tags.occ_percent::.cpu.data        0.968465                       # Average percentage of cache occupancy
system.l2.tags.occ_percent::total            0.974573                       # Average percentage of cache occupancy
system.l2.tags.occ_task_id_blocks::1024         32768                       # Occupied blocks per task id
system.l2.tags.age_task_id_blocks_1024::0           35                       # Occupied blocks per task id
system.l2.tags.age_task_id_blocks_1024::1           31                       # Occupied blocks per task id
system.l2.tags.age_task_id_blocks_1024::2          449                       # Occupied blocks per task id
system.l2.tags.age_task_id_blocks_1024::3         7167                       # Occupied blocks per task id
system.l2.tags.age_task_id_blocks_1024::4        25086                       # Occupied blocks per task id
system.l2.tags.occ_task_id_percent::1024            1                       # Percentage of cache occupancy per task id
system.l2.tags.tag_accesses                  15811933                       # Number of tag accesses
system.l2.tags.data_accesses                 15811933                       # Number of data accesses
system.l2.tags.power_state.pwrStateResidencyTicks::UNDEFINED  86016895500                       # Cumulative time (in ticks) in various power states
system.mem_ctrls.avgPriority_.writebacks::samples    118930.00                       # Average QoS priority value for accepted requests
system.mem_ctrls.avgPriority_.cpu.inst::samples       819.00                       # Average QoS priority value for accepted requests
system.mem_ctrls.avgPriority_.cpu.data::samples    209408.00                       # Average QoS priority value for accepted requests
system.mem_ctrls.priorityMinLatency      0.000000018750                       # per QoS priority minimum request to response latency (s)
system.mem_ctrls.priorityMaxLatency      0.002958022500                       # per QoS priority maximum request to response latency (s)
system.mem_ctrls.numReadWriteTurnArounds         7110                       # Number of turnarounds from READ to WRITE
system.mem_ctrls.numWriteReadTurnArounds         7110                       # Number of turnarounds from WRITE to READ
system.mem_ctrls.numStayReadState              550755                       # Number of times bus staying in READ state
system.mem_ctrls.numStayWriteState             111946                       # Number of times bus staying in WRITE state
system.mem_ctrls.readReqs                      210282                       # Number of read requests accepted
system.mem_ctrls.writeReqs                     118930                       # Number of write requests accepted
system.mem_ctrls.readBursts                    210282                       # Number of controller read bursts, including those serviced by the write queue
system.mem_ctrls.writeBursts                   118930                       # Number of controller write bursts, including those merged in the write queue
system.mem_ctrls.servicedByWrQ                     55                       # Number of controller read bursts serviced by the write queue
system.mem_ctrls.mergedWrBursts                     0                       # Number of controller write bursts merged with an existing one
system.mem_ctrls.neitherReadNorWriteReqs            0                       # Number of requests that are neither read nor write
system.mem_ctrls.avgRdQLen                       1.07                       # Average read queue length when enqueuing
system.mem_ctrls.avgWrQLen                      24.85                       # Average write queue length when enqueuing
system.mem_ctrls.numRdRetry                         0                       # Number of times read queue was full causing retry
system.mem_ctrls.numWrRetry                         0                       # Number of times write queue was full causing retry
system.mem_ctrls.readPktSize::0                     0                       # Read request sizes (log2)
system.mem_ctrls.readPktSize::1                     0                       # Read request sizes (log2)
system.mem_ctrls.readPktSize::2                     0                       # Read request sizes (log2)
system.mem_ctrls.readPktSize::3                     0                       # Read request sizes (log2)
system.mem_ctrls.readPktSize::4                     0                       # Read request sizes (log2)
system.mem_ctrls.readPktSize::5                     0                       # Read request sizes (log2)
system.mem_ctrls.readPktSize::6                210282                       # Read request sizes (log2)
system.mem_ctrls.writePktSize::0                    0                       # Write request sizes (log2)
system.mem_ctrls.writePktSize::1                    0                       # Write request sizes (log2)
[...]
system.mem_ctrls.dram.bw_write::.writebacks     88488662                       # Write bandwidth from this memory (bytes/s)
system.mem_ctrls.dram.bw_write::total        88488662                       # Write bandwidth from this memory (bytes/s)
system.mem_ctrls.dram.bw_total::.writebacks     88488662                       # Total bandwidth to/from this memory (bytes/s)
system.mem_ctrls.dram.bw_total::.cpu.inst       609369                       # Total bandwidth to/from this memory (bytes/s)
system.mem_ctrls.dram.bw_total::.cpu.data    155848824                       # Total bandwidth to/from this memory (bytes/s)
system.mem_ctrls.dram.bw_total::total       244946855                       # Total bandwidth to/from this memory (bytes/s)
system.mem_ctrls.dram.readBursts               210227                       # Number of DRAM read bursts
system.mem_ctrls.dram.writeBursts              118907                       # Number of DRAM write bursts
system.mem_ctrls.dram.perBankRdBursts::0        13167                       # Per bank write bursts
system.mem_ctrls.dram.perBankRdBursts::1        13320                       # Per bank write bursts
system.mem_ctrls.dram.perBankRdBursts::2        13563                       # Per bank write bursts
system.mem_ctrls.dram.perBankRdBursts::3        13532                       # Per bank write bursts
system.mem_ctrls.dram.perBankRdBursts::4        13270                       # Per bank write bursts
system.mem_ctrls.dram.perBankRdBursts::5        13230                       # Per bank write bursts
system.mem_ctrls.dram.perBankRdBursts::6        13354                       # Per bank write bursts
system.mem_ctrls.dram.perBankRdBursts::7        13113                       # Per bank write bursts
system.mem_ctrls.dram.perBankRdBursts::8        13178                       # Per bank write bursts
system.mem_ctrls.dram.perBankRdBursts::9        13017                       # Per bank write bursts
system.mem_ctrls.dram.perBankRdBursts::10        12996                       # Per bank write bursts
system.mem_ctrls.dram.perBankRdBursts::11        12883                       # Per bank write bursts
system.mem_ctrls.dram.perBankRdBursts::12        13026                       # Per bank write bursts
system.mem_ctrls.dram.perBankRdBursts::13        13066                       # Per bank write bursts
system.mem_ctrls.dram.perBankRdBursts::14        12628                       # Per bank write bursts
system.mem_ctrls.dram.perBankRdBursts::15        12884                       # Per bank write bursts
system.mem_ctrls.dram.perBankWrBursts::0         7338                       # Per bank write bursts
system.mem_ctrls.dram.perBankWrBursts::1         7502                       # Per bank write bursts
system.mem_ctrls.dram.perBankWrBursts::2         7612                       # Per bank write bursts
system.mem_ctrls.dram.perBankWrBursts::3         7619                       # Per bank write bursts
system.mem_ctrls.dram.perBankWrBursts::4         7446                       # Per bank write bursts
system.mem_ctrls.dram.perBankWrBursts::5         7456                       # Per bank write bursts
system.mem_ctrls.dram.perBankWrBursts::6         7619                       # Per bank write bursts
system.mem_ctrls.dram.perBankWrBursts::7         7455                       # Per bank write bursts
system.mem_ctrls.dram.perBankWrBursts::8         7503                       # Per bank write bursts
system.mem_ctrls.dram.perBankWrBursts::9         7442                       # Per bank write bursts
system.mem_ctrls.dram.perBankWrBursts::10         7533                       # Per bank write bursts
system.mem_ctrls.dram.perBankWrBursts::11         7461                       # Per bank write bursts
system.mem_ctrls.dram.perBankWrBursts::12         7394                       # Per bank write bursts
system.mem_ctrls.dram.perBankWrBursts::13         7355                       # Per bank write bursts
system.mem_ctrls.dram.perBankWrBursts::14         6976                       # Per bank write bursts
system.mem_ctrls.dram.perBankWrBursts::15         7196                       # Per bank write bursts
system.mem_ctrls.dram.totQLat              3052785250                       # Total ticks spent queuing
system.mem_ctrls.dram.totBusLat            1051135000                       # Total ticks spent in databus transfers
system.mem_ctrls.dram.totMemAccLat         6994541500                       # Total ticks spent from burst creation until serviced by the DRAM
system.mem_ctrls.dram.avgQLat                14521.38                       # Average queueing delay per DRAM burst
system.mem_ctrls.dram.avgBusLat               5000.00                       # Average bus latency per DRAM burst
system.mem_ctrls.dram.avgMemAccLat           33271.38                       # Average memory access latency per DRAM burst
system.mem_ctrls.dram.readRowHits              141664                       # Number of row buffer hits during reads
system.mem_ctrls.dram.writeRowHits              71600                       # Number of row buffer hits during writes
system.mem_ctrls.dram.readRowHitRate            67.39                       # Row buffer hit rate for reads
system.mem_ctrls.dram.writeRowHitRate           60.22                       # Row buffer hit rate for writes
system.mem_ctrls.dram.bytesPerActivate::samples       115865                       # Bytes accessed per row activation
system.mem_ctrls.dram.bytesPerActivate::mean   181.799991                       # Bytes accessed per row activation
system.mem_ctrls.dram.bytesPerActivate::gmean   107.788865                       # Bytes accessed per row activation
system.mem_ctrls.dram.bytesPerActivate::stdev   247.644703                       # Bytes accessed per row activation
system.mem_ctrls.dram.bytesPerActivate::0-127        77903     67.24%     67.24% # Bytes accessed per row activation
system.mem_ctrls.dram.bytesPerActivate::128-255        16384     14.14%     81.38% # Bytes accessed per row activation
system.mem_ctrls.dram.bytesPerActivate::256-383         2954      2.55%     83.93% # Bytes accessed per row activation
system.mem_ctrls.dram.bytesPerActivate::384-511         1498      1.29%     85.22% # Bytes accessed per row activation
system.mem_ctrls.dram.bytesPerActivate::512-639         8823      7.61%     92.83% # Bytes accessed per row activation
system.mem_ctrls.dram.bytesPerActivate::640-767         1346      1.16%     94.00% # Bytes accessed per row activation
system.mem_ctrls.dram.bytesPerActivate::768-895          943      0.81%     94.81% # Bytes accessed per row activation
system.mem_ctrls.dram.bytesPerActivate::896-1023          386      0.33%     95.14% # Bytes accessed per row activation
system.mem_ctrls.dram.bytesPerActivate::1024-1151         5628      4.86%    100.00% # Bytes accessed per row activation
system.mem_ctrls.dram.bytesPerActivate::total       115865                       # Bytes accessed per row activation
system.mem_ctrls.dram.bytesRead              13454528                       # Total number of bytes read from DRAM
system.mem_ctrls.dram.bytesWritten            7610048                       # Total number of bytes written to DRAM
system.mem_ctrls.dram.avgRdBW              156.417270                       # Average DRAM read bandwidth in MiBytes/s
system.mem_ctrls.dram.avgWrBW               88.471549                       # Average DRAM write bandwidth in MiBytes/s
system.mem_ctrls.dram.peakBW                 12800.00                       # Theoretical peak bandwidth in MiByte/s
system.mem_ctrls.dram.busUtil                    1.91                       # Data bus utilization in percentage
system.mem_ctrls.dram.busUtilRead                1.22                       # Data bus utilization in percentage for reads
system.mem_ctrls.dram.busUtilWrite               0.69                       # Data bus utilization in percentage for writes
system.mem_ctrls.dram.pageHitRate               64.80                       # Row buffer hit rate, read and write combined
system.mem_ctrls.dram.power_state.pwrStateResidencyTicks::UNDEFINED  86016895500                       # Cumulative time (in ticks) in various power states
system.mem_ctrls.dram.rank0.actEnergy       415597980                       # Energy for activate commands per rank (pJ)
system.mem_ctrls.dram.rank0.preEnergy       220887975                       # Energy for precharge commands per rank (pJ)
system.mem_ctrls.dram.rank0.readEnergy      760759860                       # Energy for read commands per rank (pJ)
system.mem_ctrls.dram.rank0.writeEnergy     313445340                       # Energy for write commands per rank (pJ)
system.mem_ctrls.dram.rank0.refreshEnergy 6789928080.000001                       # Energy for refresh commands per rank (pJ)
system.mem_ctrls.dram.rank0.actBackEnergy  22089353070                       # Energy for active background per rank (pJ)
system.mem_ctrls.dram.rank0.preBackEnergy  14428927680                       # Energy for precharge background per rank (pJ)
system.mem_ctrls.dram.rank0.actPowerDownEnergy            0                       # Energy for active power-down per rank (pJ)
system.mem_ctrls.dram.rank0.prePowerDownEnergy            0                       # Energy for precharge power-down per rank (pJ)
system.mem_ctrls.dram.rank0.selfRefreshEnergy            0                       # Energy for self refresh per rank (pJ)
system.mem_ctrls.dram.rank0.totalEnergy   45018899985                       # Total energy per rank (pJ)
system.mem_ctrls.dram.rank0.averagePower   523.372760                       # Core power per rank (mW)
system.mem_ctrls.dram.rank0.totalIdleTime            0                       # Total Idle time Per DRAM Rank
system.mem_ctrls.dram.rank0.pwrStateTime::IDLE  37282394500                       # Time in different power states
system.mem_ctrls.dram.rank0.pwrStateTime::REF   2872220000                       # Time in different power states
system.mem_ctrls.dram.rank0.pwrStateTime::SREF            0                       # Time in different power states
system.mem_ctrls.dram.rank0.pwrStateTime::PRE_PDN            0                       # Time in different power states
system.mem_ctrls.dram.rank0.pwrStateTime::ACT  45862281000                       # Time in different power states
system.mem_ctrls.dram.rank0.pwrStateTime::ACT_PDN            0                       # Time in different power states
system.mem_ctrls.dram.rank1.actEnergy       411713820                       # Energy for activate commands per rank (pJ)
system.mem_ctrls.dram.rank1.preEnergy       218819700                       # Energy for precharge commands per rank (pJ)
system.mem_ctrls.dram.rank1.readEnergy      740260920                       # Energy for read commands per rank (pJ)
system.mem_ctrls.dram.rank1.writeEnergy     307249200                       # Energy for write commands per rank (pJ)
system.mem_ctrls.dram.rank1.refreshEnergy 6789928080.000001                       # Energy for refresh commands per rank (pJ)
system.mem_ctrls.dram.rank1.actBackEnergy  21226986390                       # Energy for active background per rank (pJ)
system.mem_ctrls.dram.rank1.preBackEnergy  15155131200                       # Energy for precharge background per rank (pJ)
system.mem_ctrls.dram.rank1.actPowerDownEnergy            0                       # Energy for active power-down per rank (pJ)
system.mem_ctrls.dram.rank1.prePowerDownEnergy            0                       # Energy for precharge power-down per rank (pJ)
system.mem_ctrls.dram.rank1.selfRefreshEnergy            0                       # Energy for self refresh per rank (pJ)
system.mem_ctrls.dram.rank1.totalEnergy   44850089310                       # Total energy per rank (pJ)
system.mem_ctrls.dram.rank1.averagePower   521.410231                       # Core power per rank (mW)
system.mem_ctrls.dram.rank1.totalIdleTime            0                       # Total Idle time Per DRAM Rank
system.mem_ctrls.dram.rank1.pwrStateTime::IDLE  39181269500                       # Time in different power states
system.mem_ctrls.dram.rank1.pwrStateTime::REF   2872220000                       # Time in different power states
system.mem_ctrls.dram.rank1.pwrStateTime::SREF            0                       # Time in different power states
system.mem_ctrls.dram.rank1.pwrStateTime::PRE_PDN            0                       # Time in different power states
system.mem_ctrls.dram.rank1.pwrStateTime::ACT  43963406000                       # Time in different power states
system.mem_ctrls.dram.rank1.pwrStateTime::ACT_PDN            0                       # Time in different power states
system.mem_ctrls.power_state.pwrStateResidencyTicks::UNDEFINED  86016895500                       # Cumulative time (in ticks) in various power states
system.membus.trans_dist::ReadResp              68759                       # Transaction distribution
system.membus.trans_dist::WritebackDirty       118930                       # Transaction distribution
system.membus.trans_dist::CleanEvict            58215                       # Transaction distribution
system.membus.trans_dist::ReadExReq            141523                       # Transaction distribution
system.membus.trans_dist::ReadExResp           141523                       # Transaction distribution
system.membus.trans_dist::ReadSharedReq         68759                       # Transaction distribution
system.membus.pkt_count_system.l2.mem_side_port::system.mem_ctrls.port       597709                       # Packet count per connected requestor and responder (bytes)
system.membus.pkt_count::total                 597709                       # Packet count per connected requestor and responder (bytes)
system.membus.pkt_size_system.l2.mem_side_port::system.mem_ctrls.port     21069568                       # Cumulative packet size per connected requestor and responder (bytes)
system.membus.pkt_size::total                21069568                       # Cumulative packet size per connected requestor and responder (bytes)
system.membus.snoops                                0                       # Total snoops (count)
system.membus.snoopTraffic                          0                       # Total snoop traffic (bytes)
system.membus.snoop_fanout::samples            210282                       # Request fanout histogram
system.membus.snoop_fanout::mean                    0                       # Request fanout histogram
system.membus.snoop_fanout::stdev                   0                       # Request fanout histogram
system.membus.snoop_fanout::underflows              0      0.00%      0.00% # Request fanout histogram
system.membus.snoop_fanout::0                  210282    100.00%    100.00% # Request fanout histogram
system.membus.snoop_fanout::1                       0      0.00%    100.00% # Request fanout histogram
system.membus.snoop_fanout::overflows               0      0.00%    100.00% # Request fanout histogram
system.membus.snoop_fanout::min_value               0                       # Request fanout histogram
system.membus.snoop_fanout::max_value               0                       # Request fanout histogram
system.membus.snoop_fanout::total              210282                       # Request fanout histogram
system.membus.power_state.pwrStateResidencyTicks::UNDEFINED  86016895500                       # Cumulative time (in ticks) in various power states
system.membus.reqLayer0.occupancy           896302000                       # Layer occupancy (ticks)
system.membus.reqLayer0.utilization               1.0                       # Layer utilization (%)
system.membus.respLayer1.occupancy         1133814000                       # Layer occupancy (ticks)
system.membus.respLayer1.utilization              1.3                       # Layer utilization (%)
system.tol2bus.trans_dist::ReadResp            605676                       # Transaction distribution
system.tol2bus.trans_dist::WritebackDirty       979690                       # Transaction distribution
system.tol2bus.trans_dist::WritebackClean          411                       # Transaction distribution
system.tol2bus.trans_dist::CleanEvict          172335                       # Transaction distribution
system.tol2bus.trans_dist::ReadExReq           369960                       # Transaction distribution
system.tol2bus.trans_dist::ReadExResp          369960                       # Transaction distribution
system.tol2bus.trans_dist::ReadCleanReq           871                       # Transaction distribution
system.tol2bus.trans_dist::ReadSharedReq       604805                       # Transaction distribution
system.tol2bus.pkt_count_system.cpu.icache.mem_side_port::system.l2.cpu_side_port         2153                       # Packet count per connected requestor and responder (bytes)
system.tol2bus.pkt_count_system.cpu.dcache.mem_side_port::system.l2.cpu_side_port      2923782                       # Packet count per connected requestor and responder (bytes)
system.tol2bus.pkt_count::total               2925935                       # Packet count per connected requestor and responder (bytes)
system.tol2bus.pkt_size_system.cpu.icache.mem_side_port::system.l2.cpu_side_port        82048                       # Cumulative packet size per connected requestor and responder (bytes)
system.tol2bus.pkt_size_system.cpu.dcache.mem_side_port::system.l2.cpu_side_port    117473600                       # Cumulative packet size per connected requestor and responder (bytes)
system.tol2bus.pkt_size::total              117555648                       # Cumulative packet size per connected requestor and responder (bytes)
system.tol2bus.snoops                          177773                       # Total snoops (count)
system.tol2bus.snoopTraffic                   7611520                       # Total snoop traffic (bytes)
system.tol2bus.snoop_fanout::samples          1153409                       # Request fanout histogram
system.tol2bus.snoop_fanout::mean            0.000653                       # Request fanout histogram
system.tol2bus.snoop_fanout::stdev           0.025543                       # Request fanout histogram
system.tol2bus.snoop_fanout::underflows             0      0.00%      0.00% # Request fanout histogram
system.tol2bus.snoop_fanout::0                1152656     99.93%     99.93% # Request fanout histogram
system.tol2bus.snoop_fanout::1                    753      0.07%    100.00% # Request fanout histogram
system.tol2bus.snoop_fanout::2                      0      0.00%    100.00% # Request fanout histogram
system.tol2bus.snoop_fanout::overflows              0      0.00%    100.00% # Request fanout histogram
system.tol2bus.snoop_fanout::min_value              0                       # Request fanout histogram
system.tol2bus.snoop_fanout::max_value              1                       # Request fanout histogram
system.tol2bus.snoop_fanout::total            1153409                       # Request fanout histogram
system.tol2bus.power_state.pwrStateResidencyTicks::UNDEFINED  86016895500                       # Cumulative time (in ticks) in various power states
system.tol2bus.reqLayer0.occupancy         1836320500                       # Layer occupancy (ticks)
system.tol2bus.reqLayer0.utilization              2.1                       # Layer utilization (%)
system.tol2bus.respLayer0.occupancy           1306500                       # Layer occupancy (ticks)
system.tol2bus.respLayer0.utilization             0.0                       # Layer utilization (%)
system.tol2bus.respLayer1.occupancy        1462148498                       # Layer occupancy (ticks)
system.tol2bus.respLayer1.utilization             1.7                       # Layer utilization (%)
system.voltage_domain.voltage                       1                       # Voltage in Volts

---------- End Simulation Statistics   ----------
