
---------- Begin Simulation Statistics ----------
final_tick                                   37011000                       # Number of ticks from beginning of simulation (restored from checkpoints and never reset)
host_inst_rate                                  30425                       # Simulator instruction rate (inst/s)
host_mem_usage                                 655128                       # Number of bytes of host memory used
host_op_rate                                    35383                       # Simulator op (including micro ops) rate (op/s)
host_seconds                                     0.35                       # Real time elapsed on the host
host_tick_rate                              106078345                       # Simulator tick rate (ticks/s)
sim_freq                                 1000000000000                       # Frequency of simulated ticks
sim_insts                                       10600                       # Number of instructions simulated
sim_ops                                         12340                       # Number of ops (including micro ops) simulated
sim_seconds                                  0.000037                       # Number of seconds simulated
sim_ticks                                    37011000                       # Number of ticks simulated
system.cpu.committedInsts                       10600                       # Number of instructions committed
system.cpu.committedOps                         12340                       # Number of ops (including micro ops) committed
system.cpu.cpi                               6.983208                       # CPI: cycles per instruction
system.cpu.discardedOps                          1440                       # Number of ops (including micro ops) which were discarded before commit
system.cpu.idleCycles                           54392                       # Total number of cycles that the object has spent stopped
system.cpu.ipc                               0.143201                       # IPC: instructions per cycle
system.cpu.numCycles                            74022                       # number of cpu cycles simulated
system.cpu.numFetchSuspends                         0                       # Number of times Execute suspended instruction fetching
system.cpu.numWorkItemsCompleted                    0                       # number of work items this cpu completed
system.cpu.numWorkItemsStarted                      0                       # number of work items this cpu started
system.cpu.op_class_0::No_OpClass                   0      0.00%      0.00% # Class of committed instruction
system.cpu.op_class_0::IntAlu                    7887     63.91%     63.91% # Class of committed instruction
system.cpu.op_class_0::IntMult                     50      0.41%     64.32% # Class of committed instruction
system.cpu.op_class_0::IntDiv                       4      0.03%     64.35% # Class of committed instruction
system.cpu.op_class_0::FloatAdd                     0      0.00%     64.35% # Class of committed instruction
system.cpu.op_class_0::FloatCmp                     0      0.00%     64.35% # Class of committed instruction
system.cpu.op_class_0::FloatCvt                     0      0.00%     64.35% # Class of committed instruction
system.cpu.op_class_0::FloatMult                    0      0.00%     64.35% # Class of committed instruction
system.cpu.op_class_0::FloatMultAcc                 0      0.00%     64.35% # Class of committed instruction
system.cpu.op_class_0::FloatDiv                     0      0.00%     64.35% # Class of committed instruction
system.cpu.op_class_0::FloatMisc                    0      0.00%     64.35% # Class of committed instruction
system.cpu.op_class_0::FloatSqrt                    0      0.00%     64.35% # Class of committed instruction
system.cpu.op_class_0::SimdAdd                      0      0.00%     64.35% # Class of committed instruction
system.cpu.op_class_0::SimdAddAcc                   0      0.00%     64.35% # Class of committed instruction
system.cpu.op_class_0::SimdAlu                      0      0.00%     64.35% # Class of committed instruction
system.cpu.op_class_0::SimdCmp                      0      0.00%     64.35% # Class of committed instruction
system.cpu.op_class_0::SimdCvt                      0      0.00%     64.35% # Class of committed instruction
system.cpu.op_class_0::SimdMisc                     0      0.00%     64.35% # Class of committed instruction
system.cpu.op_class_0::SimdMult                     0      0.00%     64.35% # Class of committed instruction
system.cpu.op_class_0::SimdMultAcc                  0      0.00%     64.35% # Class of committed instruction
system.cpu.op_class_0::SimdShift                    0      0.00%     64.35% # Class of committed instruction
system.cpu.op_class_0::SimdShiftAcc                 0      0.00%     64.35% # Class of committed instruction
system.cpu.op_class_0::SimdDiv                      0      0.00%     64.35% # Class of committed instruction
system.cpu.op_class_0::SimdSqrt                     0      0.00%     64.35% # Class of committed instruction
system.cpu.op_class_0::SimdFloatAdd                 0      0.00%     64.35% # Class of committed instruction
system.cpu.op_class_0::SimdFloatAlu                 0      0.00%     64.35% # Class of committed instruction
system.cpu.op_class_0::SimdFloatCmp                 0      0.00%     64.35% # Class of committed instruction
system.cpu.op_class_0::SimdFloatCvt                 0      0.00%     64.35% # Class of committed instruction
system.cpu.op_class_0::SimdFloatDiv                 0      0.00%     64.35% # Class of committed instruction
system.cpu.op_class_0::SimdFloatMisc                0      0.00%     64.35% # Class of committed instruction
system.cpu.op_class_0::SimdFloatMult                0      0.00%     64.35% # Class of committed instruction
system.cpu.op_class_0::SimdFloatMultAcc             0      0.00%     64.35% # Class of committed instruction
system.cpu.op_class_0::SimdFloatSqrt                0      0.00%     64.35% # Class of committed instruction
system.cpu.op_class_0::SimdReduceAdd                0      0.00%     64.35% # Class of committed instruction
system.cpu.op_class_0::SimdReduceAlu                0      0.00%     64.35% # Class of committed instruction
system.cpu.op_class_0::SimdReduceCmp                0      0.00%     64.35% # Class of committed instruction
system.cpu.op_class_0::SimdFloatReduceAdd            0      0.00%     64.35% # Class of committed instruction
system.cpu.op_class_0::SimdFloatReduceCmp            0      0.00%     64.35% # Class of committed instruction
system.cpu.op_class_0::SimdAes                      0      0.00%     64.35% # Class of committed instruction
system.cpu.op_class_0::SimdAesMix                   0      0.00%     64.35% # Class of committed instruction
system.cpu.op_class_0::SimdSha1Hash                 0      0.00%     64.35% # Class of committed instruction
system.cpu.op_class_0::SimdSha1Hash2                0      0.00%     64.35% # Class of committed instruction
system.cpu.op_class_0::SimdSha256Hash               0      0.00%     64.35% # Class of committed instruction
system.cpu.op_class_0::SimdSha256Hash2              0      0.00%     64.35% # Class of committed instruction
system.cpu.op_class_0::SimdShaSigma2                0      0.00%     64.35% # Class of committed instruction
system.cpu.op_class_0::SimdShaSigma3                0      0.00%     64.35% # Class of committed instruction
system.cpu.op_class_0::SimdPredAlu                  0      0.00%     64.35% # Class of committed instruction
system.cpu.op_class_0::MemRead                   2198     17.81%     82.16% # Class of committed instruction
system.cpu.op_class_0::MemWrite                  2201     17.84%    100.00% # Class of committed instruction
system.cpu.op_class_0::FloatMemRead                 0      0.00%    100.00% # Class of committed instruction
system.cpu.op_class_0::FloatMemWrite                0      0.00%    100.00% # Class of committed instruction
system.cpu.op_class_0::IprAccess                    0      0.00%    100.00% # Class of committed instruction
system.cpu.op_class_0::InstPrefetch                 0      0.00%    100.00% # Class of committed instruction
system.cpu.op_class_0::total                    12340                       # Class of committed instruction
system.cpu.tickCycles                           19630                       # Number of cycles that the object actually ticked
system.cpu.workload.numSyscalls                    10                       # Number of system calls
system.membus.snoop_filter.hit_multi_requests            9                       # Number of requests hitting in the snoop filter with multiple (>1) holders of the requested data.
system.membus.snoop_filter.hit_multi_snoops            0                       # Number of snoops hitting in the snoop filter with multiple (>1) holders of the requested data.
system.membus.snoop_filter.hit_single_requests          202                       # Number of requests hitting in the snoop filter with a single holder of the requested data.
system.membus.snoop_filter.hit_single_snoops            0                       # Number of snoops hitting in the snoop filter with a single holder of the requested data.
system.membus.snoop_filter.tot_requests           870                       # Total number of requests made to the snoop filter.
system.membus.snoop_filter.tot_snoops               0                       # Total number of snoops made to the snoop filter.
system.clk_domain.clock                          1000                       # Clock period in ticks
system.cpu.branchPred.lookups                    2977                       # Number of BP lookups
system.cpu.branchPred.condPredicted              1962                       # Number of conditional branches predicted
system.cpu.branchPred.condIncorrect               435                       # Number of conditional branches incorrect
system.cpu.branchPred.BTBLookups                 1439                       # Number of BTB lookups
system.cpu.branchPred.BTBHits                     755                       # Number of BTB hits
system.cpu.branchPred.BTBHitPct             52.466991                       # BTB Hit Percentage
system.cpu.branchPred.RASUsed                     273                       # Number of times the RAS was used to get a target.
system.cpu.branchPred.RASIncorrect                  5                       # Number of incorrect RAS predictions.
system.cpu.branchPred.indirectLookups             152                       # Number of indirect predictor lookups.
system.cpu.branchPred.indirectHits                 45                       # Number of indirect target hits.
system.cpu.branchPred.indirectMisses              107                       # Number of indirect misses.
system.cpu.branchPred.indirectMispredicted           52                       # Number of mispredicted indirect branches.
system.cpu.dcache.demand_hits::.cpu.data         4231                       # number of demand (read+write) hits
system.cpu.dcache.demand_hits::total             4231                       # number of demand (read+write) hits
system.cpu.dcache.overall_hits::.cpu.data         4246                       # number of overall hits
system.cpu.dcache.overall_hits::total            4246                       # number of overall hits
system.cpu.dcache.demand_misses::.cpu.data          165                       # number of demand (read+write) misses
system.cpu.dcache.demand_misses::total            165                       # number of demand (read+write) misses
system.cpu.dcache.overall_misses::.cpu.data          173                       # number of overall misses
system.cpu.dcache.overall_misses::total           173                       # number of overall misses
system.cpu.dcache.demand_miss_latency::.cpu.data      9755000                       # number of demand (read+write) miss cycles
system.cpu.dcache.demand_miss_latency::total      9755000                       # number of demand (read+write) miss cycles
system.cpu.dcache.overall_miss_latency::.cpu.data      9755000                       # number of overall miss cycles
system.cpu.dcache.overall_miss_latency::total      9755000                       # number of overall miss cycles
system.cpu.dcache.demand_accesses::.cpu.data         4396                       # number of demand (read+write) accesses
system.cpu.dcache.demand_accesses::total         4396                       # number of demand (read+write) accesses
system.cpu.dcache.overall_accesses::.cpu.data         4419                       # number of overall (read+write) accesses
system.cpu.dcache.overall_accesses::total         4419                       # number of overall (read+write) accesses
system.cpu.dcache.demand_miss_rate::.cpu.data     0.037534                       # miss rate for demand accesses
system.cpu.dcache.demand_miss_rate::total     0.037534                       # miss rate for demand accesses
system.cpu.dcache.overall_miss_rate::.cpu.data     0.039149                       # miss rate for overall accesses
system.cpu.dcache.overall_miss_rate::total     0.039149                       # miss rate for overall accesses
system.cpu.dcache.demand_avg_miss_latency::.cpu.data 59121.212121                       # average overall miss latency
system.cpu.dcache.demand_avg_miss_latency::total 59121.212121                       # average overall miss latency
system.cpu.dcache.overall_avg_miss_latency::.cpu.data 56387.283237                       # average overall miss latency
system.cpu.dcache.overall_avg_miss_latency::total 56387.283237                       # average overall miss latency
system.cpu.dcache.blocked_cycles::no_mshrs            0                       # number of cycles access was blocked
system.cpu.dcache.blocked_cycles::no_targets            0                       # number of cycles access was blocked
system.cpu.dcache.blocked::no_mshrs                 0                       # number of cycles access was blocked
system.cpu.dcache.blocked::no_targets               0                       # number of cycles access was blocked
system.cpu.dcache.avg_blocked_cycles::no_mshrs          nan                       # average number of cycles each access was blocked
system.cpu.dcache.avg_blocked_cycles::no_targets          nan                       # average number of cycles each access was blocked
system.cpu.dcache.demand_mshr_hits::.cpu.data           40                       # number of demand (read+write) MSHR hits
system.cpu.dcache.demand_mshr_hits::total           40                       # number of demand (read+write) MSHR hits
system.cpu.dcache.overall_mshr_hits::.cpu.data           40                       # number of overall MSHR hits
system.cpu.dcache.overall_mshr_hits::total           40                       # number of overall MSHR hits
system.cpu.dcache.demand_mshr_misses::.cpu.data          125                       # number of demand (read+write) MSHR misses
system.cpu.dcache.demand_mshr_misses::total          125                       # number of demand (read+write) MSHR misses
system.cpu.dcache.overall_mshr_misses::.cpu.data          131                       # number of overall MSHR misses
system.cpu.dcache.overall_mshr_misses::total          131                       # number of overall MSHR misses
system.cpu.dcache.demand_mshr_miss_latency::.cpu.data      7396000                       # number of demand (read+write) MSHR miss cycles
system.cpu.dcache.demand_mshr_miss_latency::total      7396000                       # number of demand (read+write) MSHR miss cycles
system.cpu.dcache.overall_mshr_miss_latency::.cpu.data      7784000                       # number of overall MSHR miss cycles
system.cpu.dcache.overall_mshr_miss_latency::total      7784000                       # number of overall MSHR miss cycles
system.cpu.dcache.demand_mshr_miss_rate::.cpu.data     0.028435                       # mshr miss rate for demand accesses
system.cpu.dcache.demand_mshr_miss_rate::total     0.028435                       # mshr miss rate for demand accesses
system.cpu.dcache.overall_mshr_miss_rate::.cpu.data     0.029645                       # mshr miss rate for overall accesses
system.cpu.dcache.overall_mshr_miss_rate::total     0.029645                       # mshr miss rate for overall accesses
system.cpu.dcache.demand_avg_mshr_miss_latency::.cpu.data        59168                       # average overall mshr miss latency
system.cpu.dcache.demand_avg_mshr_miss_latency::total        59168                       # average overall mshr miss latency
system.cpu.dcache.overall_avg_mshr_miss_latency::.cpu.data 59419.847328                       # average overall mshr miss latency
system.cpu.dcache.overall_avg_mshr_miss_latency::total 59419.847328                       # average overall mshr miss latency
system.cpu.dcache.replacements                      0                       # number of replacements
system.cpu.dcache.ReadReq_hits::.cpu.data         2228                       # number of ReadReq hits
system.cpu.dcache.ReadReq_hits::total            2228                       # number of ReadReq hits
system.cpu.dcache.ReadReq_misses::.cpu.data           79                       # number of ReadReq misses
system.cpu.dcache.ReadReq_misses::total            79                       # number of ReadReq misses
system.cpu.dcache.ReadReq_miss_latency::.cpu.data      4869500                       # number of ReadReq miss cycles
system.cpu.dcache.ReadReq_miss_latency::total      4869500                       # number of ReadReq miss cycles
system.cpu.dcache.ReadReq_accesses::.cpu.data         2307                       # number of ReadReq accesses(hits+misses)
system.cpu.dcache.ReadReq_accesses::total         2307                       # number of ReadReq accesses(hits+misses)
system.cpu.dcache.ReadReq_miss_rate::.cpu.data     0.034244                       # miss rate for ReadReq accesses
system.cpu.dcache.ReadReq_miss_rate::total     0.034244                       # miss rate for ReadReq accesses
system.cpu.dcache.ReadReq_avg_miss_latency::.cpu.data 61639.240506                       # average ReadReq miss latency
system.cpu.dcache.ReadReq_avg_miss_latency::total 61639.240506                       # average ReadReq miss latency
system.cpu.dcache.ReadReq_mshr_hits::.cpu.data            7                       # number of ReadReq MSHR hits
system.cpu.dcache.ReadReq_mshr_hits::total            7                       # number of ReadReq MSHR hits
system.cpu.dcache.ReadReq_mshr_misses::.cpu.data           72                       # number of ReadReq MSHR misses
system.cpu.dcache.ReadReq_mshr_misses::total           72                       # number of ReadReq MSHR misses
system.cpu.dcache.ReadReq_mshr_miss_latency::.cpu.data      4362000                       # number of ReadReq MSHR miss cycles
system.cpu.dcache.ReadReq_mshr_miss_latency::total      4362000                       # number of ReadReq MSHR miss cycles
system.cpu.dcache.ReadReq_mshr_miss_rate::.cpu.data     0.031209                       # mshr miss rate for ReadReq accesses
system.cpu.dcache.ReadReq_mshr_miss_rate::total     0.031209                       # mshr miss rate for ReadReq accesses
system.cpu.dcache.ReadReq_avg_mshr_miss_latency::.cpu.data 60583.333333                       # average ReadReq mshr miss latency
system.cpu.dcache.ReadReq_avg_mshr_miss_latency::total 60583.333333                       # average ReadReq mshr miss latency
system.cpu.dcache.WriteReq_hits::.cpu.data         2003                       # number of WriteReq hits
system.cpu.dcache.WriteReq_hits::total           2003                       # number of WriteReq hits
system.cpu.dcache.WriteReq_misses::.cpu.data           86                       # number of WriteReq misses
system.cpu.dcache.WriteReq_misses::total           86                       # number of WriteReq misses
system.cpu.dcache.WriteReq_miss_latency::.cpu.data      4885500                       # number of WriteReq miss cycles
system.cpu.dcache.WriteReq_miss_latency::total      4885500                       # number of WriteReq miss cycles
system.cpu.dcache.WriteReq_accesses::.cpu.data         2089                       # number of WriteReq accesses(hits+misses)
system.cpu.dcache.WriteReq_accesses::total         2089                       # number of WriteReq accesses(hits+misses)
system.cpu.dcache.WriteReq_miss_rate::.cpu.data     0.041168                       # miss rate for WriteReq accesses
system.cpu.dcache.WriteReq_miss_rate::total     0.041168                       # miss rate for WriteReq accesses
system.cpu.dcache.WriteReq_avg_miss_latency::.cpu.data 56808.139535                       # average WriteReq miss latency
system.cpu.dcache.WriteReq_avg_miss_latency::total 56808.139535                       # average WriteReq miss latency
system.cpu.dcache.WriteReq_mshr_hits::.cpu.data           33                       # number of WriteReq MSHR hits
system.cpu.dcache.WriteReq_mshr_hits::total           33                       # number of WriteReq MSHR hits
system.cpu.dcache.WriteReq_mshr_misses::.cpu.data           53                       # number of WriteReq MSHR misses
system.cpu.dcache.WriteReq_mshr_misses::total           53                       # number of WriteReq MSHR misses
system.cpu.dcache.WriteReq_mshr_miss_latency::.cpu.data      3034000                       # number of WriteReq MSHR miss cycles
system.cpu.dcache.WriteReq_mshr_miss_latency::total      3034000                       # number of WriteReq MSHR miss cycles
system.cpu.dcache.WriteReq_mshr_miss_rate::.cpu.data     0.025371                       # mshr miss rate for WriteReq accesses
system.cpu.dcache.WriteReq_mshr_miss_rate::total     0.025371                       # mshr miss rate for WriteReq accesses
system.cpu.dcache.WriteReq_avg_mshr_miss_latency::.cpu.data 57245.283019                       # average WriteReq mshr miss latency
system.cpu.dcache.WriteReq_avg_mshr_miss_latency::total 57245.283019                       # average WriteReq mshr miss latency
system.cpu.dcache.SoftPFReq_hits::.cpu.data           15                       # number of SoftPFReq hits
system.cpu.dcache.SoftPFReq_hits::total            15                       # number of SoftPFReq hits
system.cpu.dcache.SoftPFReq_misses::.cpu.data            8                       # number of SoftPFReq misses
system.cpu.dcache.SoftPFReq_misses::total            8                       # number of SoftPFReq misses
system.cpu.dcache.SoftPFReq_accesses::.cpu.data           23                       # number of SoftPFReq accesses(hits+misses)
system.cpu.dcache.SoftPFReq_accesses::total           23                       # number of SoftPFReq accesses(hits+misses)
system.cpu.dcache.SoftPFReq_miss_rate::.cpu.data     0.347826                       # miss rate for SoftPFReq accesses
system.cpu.dcache.SoftPFReq_miss_rate::total     0.347826                       # miss rate for SoftPFReq accesses
system.cpu.dcache.SoftPFReq_mshr_misses::.cpu.data            6                       # number of SoftPFReq MSHR misses
system.cpu.dcache.SoftPFReq_mshr_misses::total            6                       # number of SoftPFReq MSHR misses
system.cpu.dcache.SoftPFReq_mshr_miss_latency::.cpu.data       388000                       # number of SoftPFReq MSHR miss cycles
system.cpu.dcache.SoftPFReq_mshr_miss_latency::total       388000                       # number of SoftPFReq MSHR miss cycles
system.cpu.dcache.SoftPFReq_mshr_miss_rate::.cpu.data     0.260870                       # mshr miss rate for SoftPFReq accesses
system.cpu.dcache.SoftPFReq_mshr_miss_rate::total     0.260870                       # mshr miss rate for SoftPFReq accesses
system.cpu.dcache.SoftPFReq_avg_mshr_miss_latency::.cpu.data 64666.666667                       # average SoftPFReq mshr miss latency
system.cpu.dcache.SoftPFReq_avg_mshr_miss_latency::total 64666.666667                       # average SoftPFReq mshr miss latency
system.cpu.dcache.LoadLockedReq_hits::.cpu.data           33                       # number of LoadLockedReq hits
system.cpu.dcache.LoadLockedReq_hits::total           33                       # number of LoadLockedReq hits
system.cpu.dcache.LoadLockedReq_misses::.cpu.data            1                       # number of LoadLockedReq misses
system.cpu.dcache.LoadLockedReq_misses::total            1                       # number of LoadLockedReq misses
system.cpu.dcache.LoadLockedReq_miss_latency::.cpu.data        54000                       # number of LoadLockedReq miss cycles
system.cpu.dcache.LoadLockedReq_miss_latency::total        54000                       # number of LoadLockedReq miss cycles
system.cpu.dcache.LoadLockedReq_accesses::.cpu.data           34                       # number of LoadLockedReq accesses(hits+misses)
system.cpu.dcache.LoadLockedReq_accesses::total           34                       # number of LoadLockedReq accesses(hits+misses)
system.cpu.dcache.LoadLockedReq_miss_rate::.cpu.data     0.029412                       # miss rate for LoadLockedReq accesses
system.cpu.dcache.LoadLockedReq_miss_rate::total     0.029412                       # miss rate for LoadLockedReq accesses
system.cpu.dcache.LoadLockedReq_avg_miss_latency::.cpu.data        54000                       # average LoadLockedReq miss latency
system.cpu.dcache.LoadLockedReq_avg_miss_latency::total        54000                       # average LoadLockedReq miss latency
system.cpu.dcache.LoadLockedReq_mshr_misses::.cpu.data            1                       # number of LoadLockedReq MSHR misses
system.cpu.dcache.LoadLockedReq_mshr_misses::total            1                       # number of LoadLockedReq MSHR misses
system.cpu.dcache.LoadLockedReq_mshr_miss_latency::.cpu.data        53000                       # number of LoadLockedReq MSHR miss cycles
system.cpu.dcache.LoadLockedReq_mshr_miss_latency::total        53000                       # number of LoadLockedReq MSHR miss cycles
system.cpu.dcache.LoadLockedReq_mshr_miss_rate::.cpu.data     0.029412                       # mshr miss rate for LoadLockedReq accesses
system.cpu.dcache.LoadLockedReq_mshr_miss_rate::total     0.029412                       # mshr miss rate for LoadLockedReq accesses
system.cpu.dcache.LoadLockedReq_avg_mshr_miss_latency::.cpu.data        53000                       # average LoadLockedReq mshr miss latency
system.cpu.dcache.LoadLockedReq_avg_mshr_miss_latency::total        53000                       # average LoadLockedReq mshr miss latency
system.cpu.dcache.StoreCondReq_hits::.cpu.data           34                       # number of StoreCondReq hits
system.cpu.dcache.StoreCondReq_hits::total           34                       # number of StoreCondReq hits
system.cpu.dcache.StoreCondReq_accesses::.cpu.data           34                       # number of StoreCondReq accesses(hits+misses)
system.cpu.dcache.StoreCondReq_accesses::total           34                       # number of StoreCondReq accesses(hits+misses)
system.cpu.dcache.power_state.pwrStateResidencyTicks::UNDEFINED     37011000                       # Cumulative time (in ticks) in various power states
system.cpu.dcache.tags.tagsinuse            88.587016                       # Cycle average of tags in use
system.cpu.dcache.tags.total_refs                4445                       # Total number of references to valid blocks.
system.cpu.dcache.tags.sampled_refs               132                       # Sample count of references to valid blocks.
system.cpu.dcache.tags.avg_refs             33.674242                       # Average number of references to valid blocks.
system.cpu.dcache.tags.warmup_cycle            145000                       # Cycle when the warmup percentage was hit.
system.cpu.dcache.tags.occ_blocks::.cpu.data    88.587016                       # Average occupied blocks per requestor
system.cpu.dcache.tags.occ_percent::.cpu.data     0.086511                       # Average percentage of cache occupancy
system.cpu.dcache.tags.occ_percent::total     0.086511                       # Average percentage of cache occupancy
system.cpu.dcache.tags.occ_task_id_blocks::1024          132                       # Occupied blocks per task id
system.cpu.dcache.tags.age_task_id_blocks_1024::0            9                       # Occupied blocks per task id
system.cpu.dcache.tags.age_task_id_blocks_1024::1          123                       # Occupied blocks per task id
system.cpu.dcache.tags.occ_task_id_percent::1024     0.128906                       # Percentage of cache occupancy per task id
system.cpu.dcache.tags.tag_accesses              9106                       # Number of tag accesses
system.cpu.dcache.tags.data_accesses             9106                       # Number of data accesses
system.cpu.dcache.tags.power_state.pwrStateResidencyTicks::UNDEFINED     37011000                       # Cumulative time (in ticks) in various power states
system.cpu.dtb.instHits                             0                       # ITB inst hits
system.cpu.dtb.instMisses                           0                       # ITB inst misses
system.cpu.dtb.readHits                             0                       # DTB read hits
system.cpu.dtb.readMisses                           0                       # DTB read misses
system.cpu.dtb.writeHits                            0                       # DTB write hits
system.cpu.dtb.writeMisses                          0                       # DTB write misses
system.cpu.dtb.inserts                              0                       # Number of times an entry is inserted into the TLB
system.cpu.dtb.flushTlb                             0                       # Number of times complete TLB was flushed
system.cpu.dtb.flushTlbMva                          0                       # Number of times TLB was flushed by MVA
system.cpu.dtb.flushTlbMvaAsid                      0                       # Number of times TLB was flushed by MVA & ASID
system.cpu.dtb.flushTlbAsid                         0                       # Number of times TLB was flushed by ASID
system.cpu.dtb.flushedEntries                       0                       # Number of entries that have been flushed from TLB
system.cpu.dtb.alignFaults                          0                       # Number of TLB faults due to alignment restrictions
system.cpu.dtb.prefetchFaults                       0                       # Number of TLB faults due to prefetch
system.cpu.dtb.domainFaults                         0                       # Number of TLB faults due to domain restrictions
system.cpu.dtb.permsFaults                          0                       # Number of TLB faults due to permissions restrictions
system.cpu.dtb.readAccesses                         0                       # DTB read accesses
system.cpu.dtb.writeAccesses                        0                       # DTB write accesses
system.cpu.dtb.instAccesses                         0                       # ITB inst accesses
system.cpu.dtb.hits                                 0                       # Total TLB (inst and data) hits
system.cpu.dtb.misses                               0                       # Total TLB (inst and data) misses
system.cpu.dtb.accesses                             0                       # Total TLB (inst and data) accesses
system.cpu.dtb.stage2_mmu.stage2_tlb.instHits            0                       # ITB inst hits
system.cpu.dtb.stage2_mmu.stage2_tlb.instMisses            0                       # ITB inst misses
system.cpu.dtb.stage2_mmu.stage2_tlb.readHits            0                       # DTB read hits
system.cpu.dtb.stage2_mmu.stage2_tlb.readMisses            0                       # DTB read misses
system.cpu.dtb.stage2_mmu.stage2_tlb.writeHits            0                       # DTB write hits
system.cpu.dtb.stage2_mmu.stage2_tlb.writeMisses            0                       # DTB write misses
system.cpu.dtb.stage2_mmu.stage2_tlb.inserts            0                       # Number of times an entry is inserted into the TLB
system.cpu.dtb.stage2_mmu.stage2_tlb.flushTlb            0                       # Number of times complete TLB was flushed
system.cpu.dtb.stage2_mmu.stage2_tlb.flushTlbMva            0                       # Number of times TLB was flushed by MVA
system.cpu.dtb.stage2_mmu.stage2_tlb.flushTlbMvaAsid            0                       # Number of times TLB was flushed by MVA & ASID
system.cpu.dtb.stage2_mmu.stage2_tlb.flushTlbAsid            0                       # Number of times TLB was flushed by ASID
system.cpu.dtb.stage2_mmu.stage2_tlb.flushedEntries            0                       # Number of entries that have been flushed from TLB
system.cpu.dtb.stage2_mmu.stage2_tlb.alignFaults            0                       # Number of TLB faults due to alignment restrictions
system.cpu.dtb.stage2_mmu.stage2_tlb.prefetchFaults            0                       # Number of TLB faults due to prefetch
system.cpu.dtb.stage2_mmu.stage2_tlb.domainFaults            0                       # Number of TLB faults due to domain restrictions
system.cpu.dtb.stage2_mmu.stage2_tlb.permsFaults            0                       # Number of TLB faults due to permissions restrictions
system.cpu.dtb.stage2_mmu.stage2_tlb.readAccesses            0                       # DTB read accesses
system.cpu.dtb.stage2_mmu.stage2_tlb.writeAccesses            0                       # DTB write accesses
system.cpu.dtb.stage2_mmu.stage2_tlb.instAccesses            0                       # ITB inst accesses
system.cpu.dtb.stage2_mmu.stage2_tlb.hits            0                       # Total TLB (inst and data) hits
system.cpu.dtb.stage2_mmu.stage2_tlb.misses            0                       # Total TLB (inst and data) misses
system.cpu.dtb.stage2_mmu.stage2_tlb.accesses            0                       # Total TLB (inst and data) accesses
system.cpu.dtb.stage2_mmu.stage2_tlb.walker.walks            0                       # Table walker walks requested
system.cpu.dtb.stage2_mmu.stage2_tlb.walker.requestOrigin_Requested::Data            0                       # Table walker requests started/completed, data/inst
system.cpu.dtb.stage2_mmu.stage2_tlb.walker.requestOrigin_Requested::Inst            0                       # Table walker requests started/completed, data/inst
system.cpu.dtb.stage2_mmu.stage2_tlb.walker.requestOrigin_Requested::total            0                       # Table walker requests started/completed, data/inst
system.cpu.dtb.stage2_mmu.stage2_tlb.walker.requestOrigin_Completed::Data            0                       # Table walker requests started/completed, data/inst
system.cpu.dtb.stage2_mmu.stage2_tlb.walker.requestOrigin_Completed::Inst            0                       # Table walker requests started/completed, data/inst
system.cpu.dtb.stage2_mmu.stage2_tlb.walker.requestOrigin_Completed::total            0                       # Table walker requests started/completed, data/inst
system.cpu.dtb.stage2_mmu.stage2_tlb.walker.requestOrigin::total            0                       # Table walker requests started/completed, data/inst
system.cpu.dtb.stage2_mmu.stage2_tlb.walker.power_state.pwrStateResidencyTicks::UNDEFINED     37011000                       # Cumulative time (in ticks) in various power states
system.cpu.dtb.walker.walks                         0                       # Table walker walks requested
system.cpu.dtb.walker.requestOrigin_Requested::Data            0                       # Table walker requests started/completed, data/inst
system.cpu.dtb.walker.requestOrigin_Requested::Inst            0                       # Table walker requests started/completed, data/inst
system.cpu.dtb.walker.requestOrigin_Requested::total            0                       # Table walker requests started/completed, data/inst
system.cpu.dtb.walker.requestOrigin_Completed::Data            0                       # Table walker requests started/completed, data/inst
system.cpu.dtb.walker.requestOrigin_Completed::Inst            0                       # Table walker requests started/completed, data/inst
system.cpu.dtb.walker.requestOrigin_Completed::total            0                       # Table walker requests started/completed, data/inst
system.cpu.dtb.walker.requestOrigin::total            0                       # Table walker requests started/completed, data/inst
system.cpu.dtb.walker.power_state.pwrStateResidencyTicks::UNDEFINED     37011000                       # Cumulative time (in ticks) in various power states
system.cpu.fetch2.intInstructions                8955                       # Number of integer instructions successfully decoded
system.cpu.fetch2.fpInstructions                    0                       # Number of floating point instructions successfully decoded
system.cpu.fetch2.vecInstructions                   0                       # Number of SIMD instructions successfully decoded
system.cpu.fetch2.loadInstructions               2405                       # Number of memory load instructions successfully decoded
system.cpu.fetch2.storeInstructions              1643                       # Number of memory store instructions successfully decoded
system.cpu.fetch2.amoInstructions                   0                       # Number of memory atomic instructions successfully decoded
system.cpu.icache.demand_hits::.cpu.inst         3537                       # number of demand (read+write) hits
system.cpu.icache.demand_hits::total             3537                       # number of demand (read+write) hits
system.cpu.icache.overall_hits::.cpu.inst         3537                       # number of overall hits
system.cpu.icache.overall_hits::total            3537                       # number of overall hits
system.cpu.icache.demand_misses::.cpu.inst          548                       # number of demand (read+write) misses
system.cpu.icache.demand_misses::total            548                       # number of demand (read+write) misses
system.cpu.icache.overall_misses::.cpu.inst          548                       # number of overall misses
system.cpu.icache.overall_misses::total           548                       # number of overall misses
system.cpu.icache.demand_miss_latency::.cpu.inst     28071000                       # number of demand (read+write) miss cycles
system.cpu.icache.demand_miss_latency::total     28071000                       # number of demand (read+write) miss cycles
system.cpu.icache.overall_miss_latency::.cpu.inst     28071000                       # number of overall miss cycles
system.cpu.icache.overall_miss_latency::total     28071000                       # number of overall miss cycles
system.cpu.icache.demand_accesses::.cpu.inst         4085                       # number of demand (read+write) accesses
system.cpu.icache.demand_accesses::total         4085                       # number of demand (read+write) accesses
system.cpu.icache.overall_accesses::.cpu.inst         4085                       # number of overall (read+write) accesses
system.cpu.icache.overall_accesses::total         4085                       # number of overall (read+write) accesses
system.cpu.icache.demand_miss_rate::.cpu.inst     0.134149                       # miss rate for demand accesses
system.cpu.icache.demand_miss_rate::total     0.134149                       # miss rate for demand accesses
system.cpu.icache.overall_miss_rate::.cpu.inst     0.134149                       # miss rate for overall accesses
system.cpu.icache.overall_miss_rate::total     0.134149                       # miss rate for overall accesses
system.cpu.icache.demand_avg_miss_latency::.cpu.inst 51224.452555                       # average overall miss latency
system.cpu.icache.demand_avg_miss_latency::total 51224.452555                       # average overall miss latency
system.cpu.icache.overall_avg_miss_latency::.cpu.inst 51224.452555                       # average overall miss latency
system.cpu.icache.overall_avg_miss_latency::total 51224.452555                       # average overall miss latency
system.cpu.icache.blocked_cycles::no_mshrs            0                       # number of cycles access was blocked
system.cpu.icache.blocked_cycles::no_targets            0                       # number of cycles access was blocked
system.cpu.icache.blocked::no_mshrs                 0                       # number of cycles access was blocked
system.cpu.icache.blocked::no_targets               0                       # number of cycles access was blocked
system.cpu.icache.avg_blocked_cycles::no_mshrs          nan                       # average number of cycles each access was blocked
system.cpu.icache.avg_blocked_cycles::no_targets          nan                       # average number of cycles each access was blocked
system.cpu.icache.writebacks::.writebacks          191                       # number of writebacks
system.cpu.icache.writebacks::total               191                       # number of writebacks
system.cpu.icache.demand_mshr_misses::.cpu.inst          548                       # number of demand (read+write) MSHR misses
system.cpu.icache.demand_mshr_misses::total          548                       # number of demand (read+write) MSHR misses
system.cpu.icache.overall_mshr_misses::.cpu.inst          548                       # number of overall MSHR misses
system.cpu.icache.overall_mshr_misses::total          548                       # number of overall MSHR misses
system.cpu.icache.demand_mshr_miss_latency::.cpu.inst     27524000                       # number of demand (read+write) MSHR miss cycles
system.cpu.icache.demand_mshr_miss_latency::total     27524000                       # number of demand (read+write) MSHR miss cycles
system.cpu.icache.overall_mshr_miss_latency::.cpu.inst     27524000                       # number of overall MSHR miss cycles
system.cpu.icache.overall_mshr_miss_latency::total     27524000                       # number of overall MSHR miss cycles
system.cpu.icache.demand_mshr_miss_rate::.cpu.inst     0.134149                       # mshr miss rate for demand accesses
system.cpu.icache.demand_mshr_miss_rate::total     0.134149                       # mshr miss rate for demand accesses
system.cpu.icache.overall_mshr_miss_rate::.cpu.inst     0.134149                       # mshr miss rate for overall accesses
system.cpu.icache.overall_mshr_miss_rate::total     0.134149                       # mshr miss rate for overall accesses
system.cpu.icache.demand_avg_mshr_miss_latency::.cpu.inst 50226.277372                       # average overall mshr miss latency
system.cpu.icache.demand_avg_mshr_miss_latency::total 50226.277372                       # average overall mshr miss latency
system.cpu.icache.overall_avg_mshr_miss_latency::.cpu.inst 50226.277372                       # average overall mshr miss latency
system.cpu.icache.overall_avg_mshr_miss_latency::total 50226.277372                       # average overall mshr miss latency
system.cpu.icache.replacements                    191                       # number of replacements
system.cpu.icache.ReadReq_hits::.cpu.inst         3537                       # number of ReadReq hits
system.cpu.icache.ReadReq_hits::total            3537                       # number of ReadReq hits
system.cpu.icache.ReadReq_misses::.cpu.inst          548                       # number of ReadReq misses
system.cpu.icache.ReadReq_misses::total           548                       # number of ReadReq misses
system.cpu.icache.ReadReq_miss_latency::.cpu.inst     28071000                       # number of ReadReq miss cycles
system.cpu.icache.ReadReq_miss_latency::total     28071000                       # number of ReadReq miss cycles
system.cpu.icache.ReadReq_accesses::.cpu.inst         4085                       # number of ReadReq accesses(hits+misses)
system.cpu.icache.ReadReq_accesses::total         4085                       # number of ReadReq accesses(hits+misses)
system.cpu.icache.ReadReq_miss_rate::.cpu.inst     0.134149                       # miss rate for ReadReq accesses
system.cpu.icache.ReadReq_miss_rate::total     0.134149                       # miss rate for ReadReq accesses
system.cpu.icache.ReadReq_avg_miss_latency::.cpu.inst 51224.452555                       # average ReadReq miss latency
system.cpu.icache.ReadReq_avg_miss_latency::total 51224.452555                       # average ReadReq miss latency
system.cpu.icache.ReadReq_mshr_misses::.cpu.inst          548                       # number of ReadReq MSHR misses
system.cpu.icache.ReadReq_mshr_misses::total          548                       # number of ReadReq MSHR misses
system.cpu.icache.ReadReq_mshr_miss_latency::.cpu.inst     27524000                       # number of ReadReq MSHR miss cycles
system.cpu.icache.ReadReq_mshr_miss_latency::total     27524000                       # number of ReadReq MSHR miss cycles
system.cpu.icache.ReadReq_mshr_miss_rate::.cpu.inst     0.134149                       # mshr miss rate for ReadReq accesses
system.cpu.icache.ReadReq_mshr_miss_rate::total     0.134149                       # mshr miss rate for ReadReq accesses
system.cpu.icache.ReadReq_avg_mshr_miss_latency::.cpu.inst 50226.277372                       # average ReadReq mshr miss latency
system.cpu.icache.ReadReq_avg_mshr_miss_latency::total 50226.277372                       # average ReadReq mshr miss latency
system.cpu.icache.power_state.pwrStateResidencyTicks::UNDEFINED     37011000                       # Cumulative time (in ticks) in various power states
system.cpu.icache.tags.tagsinuse           216.548841                       # Cycle average of tags in use
system.cpu.icache.tags.total_refs                4084                       # Total number of references to valid blocks.
system.cpu.icache.tags.sampled_refs               547                       # Sample count of references to valid blocks.
system.cpu.icache.tags.avg_refs              7.466179                       # Average number of references to valid blocks.
system.cpu.icache.tags.warmup_cycle             77000                       # Cycle when the warmup percentage was hit.
system.cpu.icache.tags.occ_blocks::.cpu.inst   216.548841                       # Average occupied blocks per requestor
system.cpu.icache.tags.occ_percent::.cpu.inst     0.422947                       # Average percentage of cache occupancy
system.cpu.icache.tags.occ_percent::total     0.422947                       # Average percentage of cache occupancy
system.cpu.icache.tags.occ_task_id_blocks::1024          356                       # Occupied blocks per task id
system.cpu.icache.tags.age_task_id_blocks_1024::0           83                       # Occupied blocks per task id
system.cpu.icache.tags.age_task_id_blocks_1024::1          273                       # Occupied blocks per task id
system.cpu.icache.tags.occ_task_id_percent::1024     0.695312                       # Percentage of cache occupancy per task id
system.cpu.icache.tags.tag_accesses              8717                       # Number of tag accesses
system.cpu.icache.tags.data_accesses             8717                       # Number of data accesses
system.cpu.icache.tags.power_state.pwrStateResidencyTicks::UNDEFINED     37011000                       # Cumulative time (in ticks) in various power states
system.cpu.itb.instHits                             0                       # ITB inst hits
system.cpu.itb.instMisses                           0                       # ITB inst misses
system.cpu.itb.readHits                             0                       # DTB read hits
system.cpu.itb.readMisses                           0                       # DTB read misses
system.cpu.itb.writeHits                            0                       # DTB write hits
system.cpu.itb.writeMisses                          0                       # DTB write misses
system.cpu.itb.inserts                              0                       # Number of times an entry is inserted into the TLB
system.cpu.itb.flushTlb                             0                       # Number of times complete TLB was flushed
system.cpu.itb.flushTlbMva                          0                       # Number of times TLB was flushed by MVA
system.cpu.itb.flushTlbMvaAsid                      0                       # Number of times TLB was flushed by MVA & ASID
system.cpu.itb.flushTlbAsid                         0                       # Number of times TLB was flushed by ASID
system.cpu.itb.flushedEntries                       0                       # Number of entries that have been flushed from TLB
system.cpu.itb.alignFaults                          0                       # Number of TLB faults due to alignment restrictions
system.cpu.itb.prefetchFaults                       0                       # Number of TLB faults due to prefetch
system.cpu.itb.domainFaults                         0                       # Number of TLB faults due to domain restrictions
system.cpu.itb.permsFaults                          0                       # Number of TLB faults due to permissions restrictions
system.cpu.itb.readAccesses                         0                       # DTB read accesses
system.cpu.itb.writeAccesses                        0                       # DTB write accesses
system.cpu.itb.instAccesses                         0                       # ITB inst accesses
system.cpu.itb.hits                                 0                       # Total TLB (inst and data) hits
system.cpu.itb.misses                               0                       # Total TLB (inst and data) misses
system.cpu.itb.accesses                             0                       # Total TLB (inst and data) accesses
system.cpu.itb.stage2_mmu.stage2_tlb.instHits            0                       # ITB inst hits
system.cpu.itb.stage2_mmu.stage2_tlb.instMisses            0                       # ITB inst misses
system.cpu.itb.stage2_mmu.stage2_tlb.readHits            0                       # DTB read hits
system.cpu.itb.stage2_mmu.stage2_tlb.readMisses            0                       # DTB read misses
system.cpu.itb.stage2_mmu.stage2_tlb.writeHits            0                       # DTB write hits
system.cpu.itb.stage2_mmu.stage2_tlb.writeMisses            0                       # DTB write misses
system.cpu.itb.stage2_mmu.stage2_tlb.inserts            0                       # Number of times an entry is inserted into the TLB
system.cpu.itb.stage2_mmu.stage2_tlb.flushTlb            0                       # Number of times complete TLB was flushed
system.cpu.itb.stage2_mmu.stage2_tlb.flushTlbMva            0                       # Number of times TLB was flushed by MVA
system.cpu.itb.stage2_mmu.stage2_tlb.flushTlbMvaAsid            0                       # Number of times TLB was flushed by MVA & ASID
system.cpu.itb.stage2_mmu.stage2_tlb.flushTlbAsid            0                       # Number of times TLB was flushed by ASID
system.cpu.itb.stage2_mmu.stage2_tlb.flushedEntries            0                       # Number of entries that have been flushed from TLB
system.cpu.itb.stage2_mmu.stage2_tlb.alignFaults            0                       # Number of TLB faults due to alignment restrictions
system.cpu.itb.stage2_mmu.stage2_tlb.prefetchFaults            0                       # Number of TLB faults due to prefetch
system.cpu.itb.stage2_mmu.stage2_tlb.domainFaults            0                       # Number of TLB faults due to domain restrictions
system.cpu.itb.stage2_mmu.stage2_tlb.permsFaults            0                       # Number of TLB faults due to permissions restrictions
system.cpu.itb.stage2_mmu.stage2_tlb.readAccesses            0                       # DTB read accesses
system.cpu.itb.stage2_mmu.stage2_tlb.writeAccesses            0                       # DTB write accesses
system.cpu.itb.stage2_mmu.stage2_tlb.instAccesses            0                       # ITB inst accesses
system.cpu.itb.stage2_mmu.stage2_tlb.hits            0                       # Total TLB (inst and data) hits
system.cpu.itb.stage2_mmu.stage2_tlb.misses            0                       # Total TLB (inst and data) misses
system.cpu.itb.stage2_mmu.stage2_tlb.accesses            0                       # Total TLB (inst and data) accesses
system.cpu.itb.stage2_mmu.stage2_tlb.walker.walks            0                       # Table walker walks requested
system.cpu.itb.stage2_mmu.stage2_tlb.walker.requestOrigin_Requested::Data            0                       # Table walker requests started/completed, data/inst
system.cpu.itb.stage2_mmu.stage2_tlb.walker.requestOrigin_Requested::Inst            0                       # Table walker requests started/completed, data/inst
system.cpu.itb.stage2_mmu.stage2_tlb.walker.requestOrigin_Requested::total            0                       # Table walker requests started/completed, data/inst
system.cpu.itb.stage2_mmu.stage2_tlb.walker.requestOrigin_Completed::Data            0                       # Table walker requests started/completed, data/inst
system.cpu.itb.stage2_mmu.stage2_tlb.walker.requestOrigin_Completed::Inst            0                       # Table walker requests started/completed, data/inst
system.cpu.itb.stage2_mmu.stage2_tlb.walker.requestOrigin_Completed::total            0                       # Table walker requests started/completed, data/inst
system.cpu.itb.stage2_mmu.stage2_tlb.walker.requestOrigin::total            0                       # Table walker requests started/completed, data/inst
system.cpu.itb.stage2_mmu.stage2_tlb.walker.power_state.pwrStateResidencyTicks::UNDEFINED     37011000                       # Cumulative time (in ticks) in various power states
system.cpu.itb.walker.walks                         0                       # Table walker walks requested
system.cpu.itb.walker.requestOrigin_Requested::Data            0                       # Table walker requests started/completed, data/inst
system.cpu.itb.walker.requestOrigin_Requested::Inst            0                       # Table walker requests started/completed, data/inst
system.cpu.itb.walker.requestOrigin_Requested::total            0                       # Table walker requests started/completed, data/inst
system.cpu.itb.walker.requestOrigin_Completed::Data            0                       # Table walker requests started/completed, data/inst
system.cpu.itb.walker.requestOrigin_Completed::Inst            0                       # Table walker requests started/completed, data/inst
system.cpu.itb.walker.requestOrigin_Completed::total            0                       # Table walker requests started/completed, data/inst
system.cpu.itb.walker.requestOrigin::total            0                       # Table walker requests started/completed, data/inst
system.cpu.itb.walker.power_state.pwrStateResidencyTicks::UNDEFINED     37011000                       # Cumulative time (in ticks) in various power states
system.cpu.power_state.pwrStateResidencyTicks::ON     37011000                       # Cumulative time (in ticks) in various power states
system.cpu.thread_0.numInsts                    10600                       # Number of Instructions committed
system.cpu.thread_0.numOps                      12340                       # Number of Ops committed
system.cpu.thread_0.numMemRefs                      0                       # Number of Memory References
system.cpu_clk_domain.clock                       500                       # Clock period in ticks
system.cpu_voltage_domain.voltage                   1                       # Voltage in Volts
system.mem_ctrls.avgPriority_.writebacks::samples       116.00                       # Average QoS priority value for accepted requests
system.mem_ctrls.avgPriority_.cpu.inst::samples       453.00                       # Average QoS priority value for accepted requests
system.mem_ctrls.avgPriority_.cpu.data::samples       132.00                       # Average QoS priority value for accepted requests
system.mem_ctrls.priorityMinLatency      0.000000018750                       # per QoS priority minimum request to response latency (s)
system.mem_ctrls.priorityMaxLatency      0.000034202500                       # per QoS priority maximum request to response latency (s)
system.mem_ctrls.numReadWriteTurnArounds            5                       # Number of turnarounds from READ to WRITE
system.mem_ctrls.numWriteReadTurnArounds            5                       # Number of turnarounds from WRITE to READ
system.mem_ctrls.numStayReadState                1348                       # Number of times bus staying in READ state
system.mem_ctrls.numStayWriteState                 80                       # Number of times bus staying in WRITE state
system.mem_ctrls.readReqs                         679                       # Number of read requests accepted
system.mem_ctrls.writeReqs                        182                       # Number of write requests accepted
system.mem_ctrls.readBursts                       679                       # Number of controller read bursts, including those serviced by the write queue
system.mem_ctrls.writeBursts                      182                       # Number of controller write bursts, including those merged in the write queue
system.mem_ctrls.servicedByWrQ                     94                       # Number of controller read bursts serviced by the write queue
system.mem_ctrls.mergedWrBursts                    66                       # Number of controller write bursts merged with an existing one
system.mem_ctrls.neitherReadNorWriteReqs            0                       # Number of requests that are neither read nor write
system.mem_ctrls.avgRdQLen                       1.15                       # Average read queue length when enqueuing
system.mem_ctrls.avgWrQLen                      14.82                       # Average write queue length when enqueuing
system.mem_ctrls.numRdRetry                         0                       # Number of times read queue was full causing retry
system.mem_ctrls.numWrRetry                         0                       # Number of times write queue was full causing retry
system.mem_ctrls.readPktSize::0                     0                       # Read request sizes (log2)
system.mem_ctrls.readPktSize::1                     0                       # Read request sizes (log2)
system.mem_ctrls.readPktSize::2                     0                       # Read request sizes (log2)
system.mem_ctrls.readPktSize::3                     0                       # Read request sizes (log2)
system.mem_ctrls.readPktSize::4                     0                       # Read request sizes (log2)
system.mem_ctrls.readPktSize::5                     0                       # Read request sizes (log2)
system.mem_ctrls.readPktSize::6                   679                       # Read request sizes (log2)
system.mem_ctrls.writePktSize::0                    0                       # Write request sizes (log2)
system.mem_ctrls.writePktSize::1                    0                       # Write request sizes (log2)
system.mem_ctrls.writePktSize::2                    0                       # Write request sizes (log2)
system.mem_ctrls.writePktSize::3                    0                       # Write request sizes (log2)
system.mem_ctrls.writePktSize::4                    0                       # Write request sizes (log2)
system.mem_ctrls.writePktSize::5                    0                       # Write request sizes (log2)
system.mem_ctrls.writePktSize::6                  182                       # Write request sizes (log2)
system.mem_ctrls.rdQLenPdf::0                     495                       # What read queue length does an incoming req see
system.mem_ctrls.rdQLenPdf::1                      83                       # What read queue length does an incoming req see
system.mem_ctrls.rdQLenPdf::2                       7                       # What read queue length does an incoming req see
system.mem_ctrls.rdQLenPdf::3                       0                       # What read queue length does an incoming req see
system.mem_ctrls.rdQLenPdf::4                       0                       # What read queue length does an incoming req see
system.mem_ctrls.rdQLenPdf::5                       0                       # What read queue length does an incoming req see
system.mem_ctrls.rdQLenPdf::6                       0                       # What read queue length does an incoming req see
system.mem_ctrls.rdQLenPdf::7                       0                       # What read queue length does an incoming req see
system.mem_ctrls.rdQLenPdf::8                       0                       # What read queue length does an incoming req see
system.mem_ctrls.rdQLenPdf::9                       0                       # What read queue length does an incoming req see
system.mem_ctrls.rdQLenPdf::10                      0                       # What read queue length does an incoming req see
system.mem_ctrls.rdQLenPdf::11                      0                       # What read queue length does an incoming req see
system.mem_ctrls.rdQLenPdf::12                      0                       # What read queue length does an incoming req see
system.mem_ctrls.rdQLenPdf::13                      0                       # What read queue length does an incoming req see
system.mem_ctrls.rdQLenPdf::14                      0                       # What read queue length does an incoming req see
system.mem_ctrls.rdQLenPdf::15                      0                       # What read queue length does an incoming req see
system.mem_ctrls.rdQLenPdf::16                      0                       # What read queue length does an incoming req see
system.mem_ctrls.rdQLenPdf::17                      0                       # What read queue length does an incoming req see
system.mem_ctrls.rdQLenPdf::18                      0                       # What read queue length does an incoming req see
system.mem_ctrls.rdQLenPdf::19                      0                       # What read queue length does an incoming req see
system.mem_ctrls.rdQLenPdf::20                      0                       # What read queue length does an incoming req see
system.mem_ctrls.rdQLenPdf::21                      0                       # What read queue length does an incoming req see
system.mem_ctrls.rdQLenPdf::22                      0                       # What read queue length does an incoming req see
system.mem_ctrls.rdQLenPdf::23                      0                       # What read queue length does an incoming req see
system.mem_ctrls.rdQLenPdf::24                      0                       # What read queue length does an incoming req see
system.mem_ctrls.rdQLenPdf::25                      0                       # What read queue length does an incoming req see
system.mem_ctrls.rdQLenPdf::26                      0                       # What read queue length does an incoming req see
system.mem_ctrls.rdQLenPdf::27                      0                       # What read queue length does an incoming req see
system.mem_ctrls.rdQLenPdf::28                      0                       # What read queue length does an incoming req see
system.mem_ctrls.rdQLenPdf::29                      0                       # What read queue length does an incoming req see
system.mem_ctrls.rdQLenPdf::30                      0                       # What read queue length does an incoming req see
system.mem_ctrls.rdQLenPdf::31                      0                       # What read queue length does an incoming req see
system.mem_ctrls.wrQLenPdf::0                       1                       # What write queue length does an incoming req see
system.mem_ctrls.wrQLenPdf::1                       1                       # What write queue length does an incoming req see
system.mem_ctrls.wrQLenPdf::2                       1                       # What write queue length does an incoming req see
system.mem_ctrls.wrQLenPdf::3                       1                       # What write queue length does an incoming req see
system.mem_ctrls.wrQLenPdf::4                       1                       # What write queue length does an incoming req see
system.mem_ctrls.wrQLenPdf::5                       1                       # What write queue length does an incoming req see
system.mem_ctrls.wrQLenPdf::6                       1                       # What write queue length does an incoming req see
system.mem_ctrls.wrQLenPdf::7                       1                       # What write queue length does an incoming req see
system.mem_ctrls.wrQLenPdf::8                       1                       # What write queue length does an incoming req see
system.mem_ctrls.wrQLenPdf::9                       1                       # What write queue length does an incoming req see
system.mem_ctrls.wrQLenPdf::10                      1                       # What write queue length does an incoming req see
system.mem_ctrls.wrQLenPdf::11                      1                       # What write queue length does an incoming req see
system.mem_ctrls.wrQLenPdf::12                      1                       # What write queue length does an incoming req see
system.mem_ctrls.wrQLenPdf::13                      1                       # What write queue length does an incoming req see
system.mem_ctrls.wrQLenPdf::14                      1                       # What write queue length does an incoming req see
system.mem_ctrls.wrQLenPdf::15                      3                       # What write queue length does an incoming req see
system.mem_ctrls.wrQLenPdf::16                      3                       # What write queue length does an incoming req see
system.mem_ctrls.wrQLenPdf::17                      6                       # What write queue length does an incoming req see
system.mem_ctrls.wrQLenPdf::18                      7                       # What write queue length does an incoming req see
system.mem_ctrls.wrQLenPdf::19                      6                       # What write queue length does an incoming req see
system.mem_ctrls.wrQLenPdf::20                      6                       # What write queue length does an incoming req see
system.mem_ctrls.wrQLenPdf::21                      6                       # What write queue length does an incoming req see
system.mem_ctrls.wrQLenPdf::22                      6                       # What write queue length does an incoming req see
system.mem_ctrls.wrQLenPdf::23                      6                       # What write queue length does an incoming req see
system.mem_ctrls.wrQLenPdf::24                      6                       # What write queue length does an incoming req see
system.mem_ctrls.wrQLenPdf::25                      6                       # What write queue length does an incoming req see
system.mem_ctrls.wrQLenPdf::26                      6                       # What write queue length does an incoming req see
system.mem_ctrls.wrQLenPdf::27                      6                       # What write queue length does an incoming req see
system.mem_ctrls.wrQLenPdf::28                      6                       # What write queue length does an incoming req see
system.mem_ctrls.wrQLenPdf::29                      6                       # What write queue length does an incoming req see
system.mem_ctrls.wrQLenPdf::30                      6                       # What write queue length does an incoming req see
system.mem_ctrls.wrQLenPdf::31                      5                       # What write queue length does an incoming req see
system.mem_ctrls.wrQLenPdf::32                      5                       # What write queue length does an incoming req see
system.mem_ctrls.wrQLenPdf::33                      0                       # What write queue length does an incoming req see
system.mem_ctrls.wrQLenPdf::34                      0                       # What write queue length does an incoming req see
system.mem_ctrls.wrQLenPdf::35                      0                       # What write queue length does an incoming req see
system.mem_ctrls.wrQLenPdf::36                      0                       # What write queue length does an incoming req see
system.mem_ctrls.wrQLenPdf::37                      0                       # What write queue length does an incoming req see
system.mem_ctrls.wrQLenPdf::38                      0                       # What write queue length does an incoming req see
system.mem_ctrls.wrQLenPdf::39                      0                       # What write queue length does an incoming req see
system.mem_ctrls.wrQLenPdf::40                      0                       # What write queue length does an incoming req see
system.mem_ctrls.wrQLenPdf::41                      0                       # What write queue length does an incoming req see
system.mem_ctrls.wrQLenPdf::42                      0                       # What write queue length does an incoming req see
system.mem_ctrls.wrQLenPdf::43                      0                       # What write queue length does an incoming req see
system.mem_ctrls.wrQLenPdf::44                      0                       # What write queue length does an incoming req see
system.mem_ctrls.wrQLenPdf::45                      0                       # What write queue length does an incoming req see
system.mem_ctrls.wrQLenPdf::46                      0                       # What write queue length does an incoming req see
system.mem_ctrls.wrQLenPdf::47                      0                       # What write queue length does an incoming req see
system.mem_ctrls.wrQLenPdf::48                      0                       # What write queue length does an incoming req see
system.mem_ctrls.wrQLenPdf::49                      0                       # What write queue length does an incoming req see
system.mem_ctrls.wrQLenPdf::50                      0                       # What write queue length does an incoming req see
system.mem_ctrls.wrQLenPdf::51                      0                       # What write queue length does an incoming req see
system.mem_ctrls.wrQLenPdf::52                      0                       # What write queue length does an incoming req see
system.mem_ctrls.wrQLenPdf::53                      0                       # What write queue length does an incoming req see
system.mem_ctrls.wrQLenPdf::54                      0                       # What write queue length does an incoming req see
system.mem_ctrls.wrQLenPdf::55                      0                       # What write queue length does an incoming req see
system.mem_ctrls.wrQLenPdf::56                      0                       # What write queue length does an incoming req see
system.mem_ctrls.wrQLenPdf::57                      0                       # What write queue length does an incoming req see
system.mem_ctrls.wrQLenPdf::58                      0                       # What write queue length does an incoming req see
system.mem_ctrls.wrQLenPdf::59                      0                       # What write queue length does an incoming req see
system.mem_ctrls.wrQLenPdf::60                      0                       # What write queue length does an incoming req see
system.mem_ctrls.wrQLenPdf::61                      0                       # What write queue length does an incoming req see
system.mem_ctrls.wrQLenPdf::62                      0                       # What write queue length does an incoming req see
system.mem_ctrls.wrQLenPdf::63                      0                       # What write queue length does an incoming req see
system.mem_ctrls.rdPerTurnAround::samples            5                       # Reads before turning the bus around for writes
system.mem_ctrls.rdPerTurnAround::mean     110.400000                       # Reads before turning the bus around for writes
system.mem_ctrls.rdPerTurnAround::gmean     34.551201                       # Reads before turning the bus around for writes
system.mem_ctrls.rdPerTurnAround::stdev    188.257271                       # Reads before turning the bus around for writes
system.mem_ctrls.rdPerTurnAround::0-15              1     20.00%     20.00% # Reads before turning the bus around for writes
system.mem_ctrls.rdPerTurnAround::16-31             2     40.00%     60.00% # Reads before turning the bus around for writes
system.mem_ctrls.rdPerTurnAround::32-47             1     20.00%     80.00% # Reads before turning the bus around for writes
system.mem_ctrls.rdPerTurnAround::432-447            1     20.00%    100.00% # Reads before turning the bus around for writes
system.mem_ctrls.rdPerTurnAround::total             5                       # Reads before turning the bus around for writes
system.mem_ctrls.wrPerTurnAround::samples            5                       # Writes before turning the bus around for reads
system.mem_ctrls.wrPerTurnAround::mean             17                       # Writes before turning the bus around for reads
system.mem_ctrls.wrPerTurnAround::gmean     16.954196                       # Writes before turning the bus around for reads
system.mem_ctrls.wrPerTurnAround::stdev      1.414214                       # Writes before turning the bus around for reads
system.mem_ctrls.wrPerTurnAround::16                3     60.00%     60.00% # Writes before turning the bus around for reads
system.mem_ctrls.wrPerTurnAround::18                1     20.00%     80.00% # Writes before turning the bus around for reads
system.mem_ctrls.wrPerTurnAround::19                1     20.00%    100.00% # Writes before turning the bus around for reads
system.mem_ctrls.wrPerTurnAround::total             5                       # Writes before turning the bus around for reads
system.mem_ctrls.bytesReadWrQ                    6016                       # Total number of bytes read from write queue
system.mem_ctrls.bytesReadSys                   43456                       # Total read bytes from the system interface side
system.mem_ctrls.bytesWrittenSys                11648                       # Total written bytes from the system interface side
system.mem_ctrls.avgRdBWSys                   1174.14                       # Average system read bandwidth in MiByte/s
system.mem_ctrls.avgWrBWSys                    314.72                       # Average system write bandwidth in MiByte/s
system.mem_ctrls.totGap                      37005500                       # Total gap between requests
system.mem_ctrls.avgGap                      42979.67                       # Average gap between requests
system.mem_ctrls.requestorReadBytes::.cpu.inst        28992                       # Per-requestor bytes read from memory
system.mem_ctrls.requestorReadBytes::.cpu.data         8448                       # Per-requestor bytes read from memory
system.mem_ctrls.requestorWriteBytes::.writebacks         5440                       # Per-requestor bytes write to memory
system.mem_ctrls.requestorReadRate::.cpu.inst 783334684.283050894737                       # Per-requestor bytes read from memory rate (Bytes/sec)
system.mem_ctrls.requestorReadRate::.cpu.data 228256464.294398963451                       # Per-requestor bytes read from memory rate (Bytes/sec)
system.mem_ctrls.requestorWriteRate::.writebacks 146983329.280484169722                       # Per-requestor bytes write to memory rate (Bytes/sec)
system.mem_ctrls.requestorReadAccesses::.cpu.inst          547                       # Per-requestor read serviced memory accesses
system.mem_ctrls.requestorReadAccesses::.cpu.data          132                       # Per-requestor read serviced memory accesses
system.mem_ctrls.requestorWriteAccesses::.writebacks          182                       # Per-requestor write serviced memory accesses
system.mem_ctrls.requestorReadTotalLat::.cpu.inst     11023750                       # Per-requestor read total memory access latency
system.mem_ctrls.requestorReadTotalLat::.cpu.data      3631000                       # Per-requestor read total memory access latency
system.mem_ctrls.requestorWriteTotalLat::.writebacks    413310500                       # Per-requestor write total memory access latency
system.mem_ctrls.requestorReadAvgLat::.cpu.inst     20153.11                       # Per-requestor read average memory access latency
system.mem_ctrls.requestorReadAvgLat::.cpu.data     27507.58                       # Per-requestor read average memory access latency
system.mem_ctrls.requestorWriteAvgLat::.writebacks   2270936.81                       # Per-requestor write average memory access latency
system.mem_ctrls.dram.bytes_read::.cpu.inst        35008                       # Number of bytes read from this memory
system.mem_ctrls.dram.bytes_read::.cpu.data         8448                       # Number of bytes read from this memory
system.mem_ctrls.dram.bytes_read::total         43456                       # Number of bytes read from this memory
system.mem_ctrls.dram.bytes_inst_read::.cpu.inst        35008                       # Number of instructions bytes read from this memory
system.mem_ctrls.dram.bytes_inst_read::total        35008                       # Number of instructions bytes read from this memory
system.mem_ctrls.dram.num_reads::.cpu.inst          547                       # Number of read requests responded to by this memory
system.mem_ctrls.dram.num_reads::.cpu.data          132                       # Number of read requests responded to by this memory
system.mem_ctrls.dram.num_reads::total            679                       # Number of read requests responded to by this memory
system.mem_ctrls.dram.bw_read::.cpu.inst    945880954                       # Total read bandwidth from this memory (bytes/s)
system.mem_ctrls.dram.bw_read::.cpu.data    228256464                       # Total read bandwidth from this memory (bytes/s)
system.mem_ctrls.dram.bw_read::total       1174137419                       # Total read bandwidth from this memory (bytes/s)
system.mem_ctrls.dram.bw_inst_read::.cpu.inst    945880954                       # Instruction read bandwidth from this memory (bytes/s)
system.mem_ctrls.dram.bw_inst_read::total    945880954                       # Instruction read bandwidth from this memory (bytes/s)
system.mem_ctrls.dram.bw_total::.cpu.inst    945880954                       # Total bandwidth to/from this memory (bytes/s)
system.mem_ctrls.dram.bw_total::.cpu.data    228256464                       # Total bandwidth to/from this memory (bytes/s)
system.mem_ctrls.dram.bw_total::total      1174137419                       # Total bandwidth to/from this memory (bytes/s)
system.mem_ctrls.dram.readBursts                  585                       # Number of DRAM read bursts
system.mem_ctrls.dram.writeBursts                  85                       # Number of DRAM write bursts
system.mem_ctrls.dram.perBankRdBursts::0           70                       # Per bank write bursts
system.mem_ctrls.dram.perBankRdBursts::1            1                       # Per bank write bursts
system.mem_ctrls.dram.perBankRdBursts::2           34                       # Per bank write bursts
system.mem_ctrls.dram.perBankRdBursts::3           44                       # Per bank write bursts
system.mem_ctrls.dram.perBankRdBursts::4           10                       # Per bank write bursts
system.mem_ctrls.dram.perBankRdBursts::5           82                       # Per bank write bursts
system.mem_ctrls.dram.perBankRdBursts::6           52                       # Per bank write bursts
system.mem_ctrls.dram.perBankRdBursts::7           20                       # Per bank write bursts
system.mem_ctrls.dram.perBankRdBursts::8           40                       # Per bank write bursts
system.mem_ctrls.dram.perBankRdBursts::9           26                       # Per bank write bursts
system.mem_ctrls.dram.perBankRdBursts::10           15                       # Per bank write bursts
system.mem_ctrls.dram.perBankRdBursts::11           78                       # Per bank write bursts
system.mem_ctrls.dram.perBankRdBursts::12           46                       # Per bank write bursts
system.mem_ctrls.dram.perBankRdBursts::13           58                       # Per bank write bursts
system.mem_ctrls.dram.perBankRdBursts::14            3                       # Per bank write bursts
system.mem_ctrls.dram.perBankRdBursts::15            6                       # Per bank write bursts
system.mem_ctrls.dram.perBankWrBursts::0           12                       # Per bank write bursts
system.mem_ctrls.dram.perBankWrBursts::1            0                       # Per bank write bursts
system.mem_ctrls.dram.perBankWrBursts::2            4                       # Per bank write bursts
system.mem_ctrls.dram.perBankWrBursts::3            9                       # Per bank write bursts
system.mem_ctrls.dram.perBankWrBursts::4            0                       # Per bank write bursts
system.mem_ctrls.dram.perBankWrBursts::5           11                       # Per bank write bursts
system.mem_ctrls.dram.perBankWrBursts::6            3                       # Per bank write bursts
system.mem_ctrls.dram.perBankWrBursts::7            2                       # Per bank write bursts
system.mem_ctrls.dram.perBankWrBursts::8            7                       # Per bank write bursts
system.mem_ctrls.dram.perBankWrBursts::9           11                       # Per bank write bursts
system.mem_ctrls.dram.perBankWrBursts::10            3                       # Per bank write bursts
system.mem_ctrls.dram.perBankWrBursts::11            5                       # Per bank write bursts
system.mem_ctrls.dram.perBankWrBursts::12            4                       # Per bank write bursts
system.mem_ctrls.dram.perBankWrBursts::13           14                       # Per bank write bursts
system.mem_ctrls.dram.perBankWrBursts::14            0                       # Per bank write bursts
system.mem_ctrls.dram.perBankWrBursts::15            0                       # Per bank write bursts
system.mem_ctrls.dram.totQLat                 3686000                       # Total ticks spent queuing
system.mem_ctrls.dram.totBusLat               2925000                       # Total ticks spent in databus transfers
system.mem_ctrls.dram.totMemAccLat           14654750                       # Total ticks spent from burst creation until serviced by the DRAM
system.mem_ctrls.dram.avgQLat                 6300.85                       # Average queueing delay per DRAM burst
system.mem_ctrls.dram.avgBusLat               5000.00                       # Average bus latency per DRAM burst
system.mem_ctrls.dram.avgMemAccLat           25050.85                       # Average memory access latency per DRAM burst
system.mem_ctrls.dram.readRowHits                 480                       # Number of row buffer hits during reads
system.mem_ctrls.dram.writeRowHits                 71                       # Number of row buffer hits during writes
system.mem_ctrls.dram.readRowHitRate            82.05                       # Row buffer hit rate for reads
system.mem_ctrls.dram.writeRowHitRate           83.53                       # Row buffer hit rate for writes
system.mem_ctrls.dram.bytesPerActivate::samples          109                       # Bytes accessed per row activation
system.mem_ctrls.dram.bytesPerActivate::mean   373.431193                       # Bytes accessed per row activation
system.mem_ctrls.dram.bytesPerActivate::gmean   265.530138                       # Bytes accessed per row activation
system.mem_ctrls.dram.bytesPerActivate::stdev   294.512540                       # Bytes accessed per row activation
system.mem_ctrls.dram.bytesPerActivate::0-127           19     17.43%     17.43% # Bytes accessed per row activation
system.mem_ctrls.dram.bytesPerActivate::128-255           22     20.18%     37.61% # Bytes accessed per row activation
system.mem_ctrls.dram.bytesPerActivate::256-383           22     20.18%     57.80% # Bytes accessed per row activation
system.mem_ctrls.dram.bytesPerActivate::384-511           19     17.43%     75.23% # Bytes accessed per row activation
system.mem_ctrls.dram.bytesPerActivate::512-639            5      4.59%     79.82% # Bytes accessed per row activation
system.mem_ctrls.dram.bytesPerActivate::640-767            6      5.50%     85.32% # Bytes accessed per row activation
system.mem_ctrls.dram.bytesPerActivate::768-895            3      2.75%     88.07% # Bytes accessed per row activation
system.mem_ctrls.dram.bytesPerActivate::896-1023            4      3.67%     91.74% # Bytes accessed per row activation
system.mem_ctrls.dram.bytesPerActivate::1024-1151            9      8.26%    100.00% # Bytes accessed per row activation
system.mem_ctrls.dram.bytesPerActivate::total          109                       # Bytes accessed per row activation
system.mem_ctrls.dram.bytesRead                 37440                       # Total number of bytes read from DRAM
system.mem_ctrls.dram.bytesWritten               5440                       # Total number of bytes written to DRAM
system.mem_ctrls.dram.avgRdBW             1011.591149                       # Average DRAM read bandwidth in MiBytes/s
system.mem_ctrls.dram.avgWrBW              146.983329                       # Average DRAM write bandwidth in MiBytes/s
system.mem_ctrls.dram.peakBW                 12800.00                       # Theoretical peak bandwidth in MiByte/s
system.mem_ctrls.dram.busUtil                    9.05                       # Data bus utilization in percentage
system.mem_ctrls.dram.busUtilRead                7.90                       # Data bus utilization in percentage for reads
system.mem_ctrls.dram.busUtilWrite               1.15                       # Data bus utilization in percentage for writes
system.mem_ctrls.dram.pageHitRate               82.24                       # Row buffer hit rate, read and write combined
system.mem_ctrls.dram.power_state.pwrStateResidencyTicks::UNDEFINED     37011000                       # Cumulative time (in ticks) in various power states
system.mem_ctrls.dram.rank0.actEnergy          385560                       # Energy for activate commands per rank (pJ)
system.mem_ctrls.dram.rank0.preEnergy          185955                       # Energy for precharge commands per rank (pJ)
system.mem_ctrls.dram.rank0.readEnergy        2234820                       # Energy for read commands per rank (pJ)
system.mem_ctrls.dram.rank0.writeEnergy        214020                       # Energy for write commands per rank (pJ)
system.mem_ctrls.dram.rank0.refreshEnergy 2458560.000000                       # Energy for refresh commands per rank (pJ)
system.mem_ctrls.dram.rank0.actBackEnergy     15429330                       # Energy for active background per rank (pJ)
system.mem_ctrls.dram.rank0.preBackEnergy      1219200                       # Energy for precharge background per rank (pJ)
system.mem_ctrls.dram.rank0.actPowerDownEnergy            0                       # Energy for active power-down per rank (pJ)
system.mem_ctrls.dram.rank0.prePowerDownEnergy            0                       # Energy for precharge power-down per rank (pJ)
system.mem_ctrls.dram.rank0.selfRefreshEnergy            0                       # Energy for self refresh per rank (pJ)
system.mem_ctrls.dram.rank0.totalEnergy      22127445                       # Total energy per rank (pJ)
system.mem_ctrls.dram.rank0.averagePower   597.861312                       # Core power per rank (mW)
system.mem_ctrls.dram.rank0.totalIdleTime            0                       # Total Idle time Per DRAM Rank
system.mem_ctrls.dram.rank0.pwrStateTime::IDLE      3033500                       # Time in different power states
system.mem_ctrls.dram.rank0.pwrStateTime::REF      1040000                       # Time in different power states
system.mem_ctrls.dram.rank0.pwrStateTime::SREF            0                       # Time in different power states
system.mem_ctrls.dram.rank0.pwrStateTime::PRE_PDN            0                       # Time in different power states
system.mem_ctrls.dram.rank0.pwrStateTime::ACT     32937500                       # Time in different power states
system.mem_ctrls.dram.rank0.pwrStateTime::ACT_PDN            0                       # Time in different power states
system.mem_ctrls.dram.rank1.actEnergy          464100                       # Energy for activate commands per rank (pJ)
system.mem_ctrls.dram.rank1.preEnergy          227700                       # Energy for precharge commands per rank (pJ)
system.mem_ctrls.dram.rank1.readEnergy        1942080                       # Energy for read commands per rank (pJ)
system.mem_ctrls.dram.rank1.writeEnergy        229680                       # Energy for write commands per rank (pJ)
system.mem_ctrls.dram.rank1.refreshEnergy 2458560.000000                       # Energy for refresh commands per rank (pJ)
system.mem_ctrls.dram.rank1.actBackEnergy     15738840                       # Energy for active background per rank (pJ)
system.mem_ctrls.dram.rank1.preBackEnergy       958560                       # Energy for precharge background per rank (pJ)
system.mem_ctrls.dram.rank1.actPowerDownEnergy            0                       # Energy for active power-down per rank (pJ)
system.mem_ctrls.dram.rank1.prePowerDownEnergy            0                       # Energy for precharge power-down per rank (pJ)
system.mem_ctrls.dram.rank1.selfRefreshEnergy            0                       # Energy for self refresh per rank (pJ)
system.mem_ctrls.dram.rank1.totalEnergy      22019520                       # Total energy per rank (pJ)
system.mem_ctrls.dram.rank1.averagePower   594.945287                       # Core power per rank (mW)
system.mem_ctrls.dram.rank1.totalIdleTime            0                       # Total Idle time Per DRAM Rank
system.mem_ctrls.dram.rank1.pwrStateTime::IDLE      2384750                       # Time in different power states
system.mem_ctrls.dram.rank1.pwrStateTime::REF      1040000                       # Time in different power states
system.mem_ctrls.dram.rank1.pwrStateTime::SREF            0                       # Time in different power states
system.mem_ctrls.dram.rank1.pwrStateTime::PRE_PDN            0                       # Time in different power states
system.mem_ctrls.dram.rank1.pwrStateTime::ACT     33586250                       # Time in different power states
system.mem_ctrls.dram.rank1.pwrStateTime::ACT_PDN            0                       # Time in different power states
system.mem_ctrls.power_state.pwrStateResidencyTicks::UNDEFINED     37011000                       # Cumulative time (in ticks) in various power states
system.membus.trans_dist::ReadResp                626                       # Transaction distribution
system.membus.trans_dist::WritebackClean          191                       # Transaction distribution
system.membus.trans_dist::ReadExReq                53                       # Transaction distribution
system.membus.trans_dist::ReadExResp               53                       # Transaction distribution
system.membus.trans_dist::ReadCleanReq            547                       # Transaction distribution
system.membus.trans_dist::ReadSharedReq            79                       # Transaction distribution
system.membus.pkt_count_system.cpu.icache.mem_side_port::system.mem_ctrls.port         1285                       # Packet count per connected requestor and responder (bytes)
system.membus.pkt_count_system.cpu.dcache.mem_side_port::system.mem_ctrls.port          264                       # Packet count per connected requestor and responder (bytes)
system.membus.pkt_count::total                   1549                       # Packet count per connected requestor and responder (bytes)
system.membus.pkt_size_system.cpu.icache.mem_side_port::system.mem_ctrls.port        47232                       # Cumulative packet size per connected requestor and responder (bytes)
system.membus.pkt_size_system.cpu.dcache.mem_side_port::system.mem_ctrls.port         8448                       # Cumulative packet size per connected requestor and responder (bytes)
system.membus.pkt_size::total                   55680                       # Cumulative packet size per connected requestor and responder (bytes)
system.membus.snoops                                0                       # Total snoops (count)
system.membus.snoopTraffic                          0                       # Total snoop traffic (bytes)
system.membus.snoop_fanout::samples               679                       # Request fanout histogram
system.membus.snoop_fanout::mean             0.029455                       # Request fanout histogram
system.membus.snoop_fanout::stdev            0.169203                       # Request fanout histogram
system.membus.snoop_fanout::underflows              0      0.00%      0.00% # Request fanout histogram
system.membus.snoop_fanout::0                     659     97.05%     97.05% # Request fanout histogram
system.membus.snoop_fanout::1                      20      2.95%    100.00% # Request fanout histogram
system.membus.snoop_fanout::2                       0      0.00%    100.00% # Request fanout histogram
system.membus.snoop_fanout::overflows               0      0.00%    100.00% # Request fanout histogram
system.membus.snoop_fanout::min_value               0                       # Request fanout histogram
system.membus.snoop_fanout::max_value               1                       # Request fanout histogram
system.membus.snoop_fanout::total                 679                       # Request fanout histogram
system.membus.power_state.pwrStateResidencyTicks::UNDEFINED     37011000                       # Cumulative time (in ticks) in various power states
system.membus.reqLayer0.occupancy             1720500                       # Layer occupancy (ticks)
system.membus.reqLayer0.utilization               4.6                       # Layer utilization (%)
system.membus.respLayer1.occupancy            2873250                       # Layer occupancy (ticks)
system.membus.respLayer1.utilization              7.8                       # Layer utilization (%)
system.membus.respLayer2.occupancy             710000                       # Layer occupancy (ticks)
system.membus.respLayer2.utilization              1.9                       # Layer utilization (%)
system.voltage_domain.voltage                       1                       # Voltage in Volts

---------- End Simulation Statistics   ----------
