
---------- Begin Simulation Statistics ----------
final_tick                                82382750500                       # Number of ticks from beginning of simulation (restored from checkpoints and never reset)
host_inst_rate                                  74254                       # Simulator instruction rate (inst/s)
host_mem_usage                                 669248                       # Number of bytes of host memory used
host_op_rate                                    74436                       # Simulator op (including micro ops) rate (op/s)
host_seconds                                  1346.75                       # Real time elapsed on the host
host_tick_rate                               61171731                       # Simulator tick rate (ticks/s)
sim_freq                                 1000000000000                       # Frequency of simulated ticks
sim_insts                                   100000000                       # Number of instructions simulated
sim_ops                                     100245691                       # Number of ops (including micro ops) simulated
sim_seconds                                  0.082383                       # Number of seconds simulated
sim_ticks                                 82382750500                       # Number of ticks simulated
system.cpu.committedInsts                   100000000                       # Number of instructions committed
system.cpu.committedOps                     100245691                       # Number of ops (including micro ops) committed
system.cpu.cpi                               1.647655                       # CPI: cycles per instruction
system.cpu.discardedOps                        537487                       # Number of ops (including micro ops) which were discarded before commit
system.cpu.idleCycles                        34875213                       # Total number of cycles that the object has spent stopped
system.cpu.ipc                               0.606923                       # IPC: instructions per cycle
system.cpu.numCycles                        164765501                       # number of cpu cycles simulated
system.cpu.numFetchSuspends                         0                       # Number of times Execute suspended instruction fetching
system.cpu.numWorkItemsCompleted                    0                       # number of work items this cpu completed
system.cpu.numWorkItemsStarted                      0                       # number of work items this cpu started
system.cpu.op_class_0::No_OpClass                   0      0.00%      0.00% # Class of committed instruction
system.cpu.op_class_0::IntAlu                39795210     39.70%     39.70% # Class of committed instruction
system.cpu.op_class_0::IntMult                  20704      0.02%     39.72% # Class of committed instruction
system.cpu.op_class_0::IntDiv                       7      0.00%     39.72% # Class of committed instruction
system.cpu.op_class_0::FloatAdd                     0      0.00%     39.72% # Class of committed instruction
system.cpu.op_class_0::FloatCmp                     0      0.00%     39.72% # Class of committed instruction
system.cpu.op_class_0::FloatCvt                     0      0.00%     39.72% # Class of committed instruction
system.cpu.op_class_0::FloatMult                    0      0.00%     39.72% # Class of committed instruction
system.cpu.op_class_0::FloatMultAcc                 0      0.00%     39.72% # Class of committed instruction
system.cpu.op_class_0::FloatDiv                     0      0.00%     39.72% # Class of committed instruction
system.cpu.op_class_0::FloatMisc                    0      0.00%     39.72% # Class of committed instruction
system.cpu.op_class_0::FloatSqrt                    0      0.00%     39.72% # Class of committed instruction
system.cpu.op_class_0::SimdAdd                      0      0.00%     39.72% # Class of committed instruction
system.cpu.op_class_0::SimdAddAcc                   0      0.00%     39.72% # Class of committed instruction
system.cpu.op_class_0::SimdAlu                      0      0.00%     39.72% # Class of committed instruction
system.cpu.op_class_0::SimdCmp                      0      0.00%     39.72% # Class of committed instruction
system.cpu.op_class_0::SimdCvt                      0      0.00%     39.72% # Class of committed instruction
system.cpu.op_class_0::SimdMisc                     0      0.00%     39.72% # Class of committed instruction
system.cpu.op_class_0::SimdMult                     0      0.00%     39.72% # Class of committed instruction
system.cpu.op_class_0::SimdMultAcc                  0      0.00%     39.72% # Class of committed instruction
system.cpu.op_class_0::SimdShift                    0      0.00%     39.72% # Class of committed instruction
system.cpu.op_class_0::SimdShiftAcc                 0      0.00%     39.72% # Class of committed instruction
system.cpu.op_class_0::SimdDiv                      0      0.00%     39.72% # Class of committed instruction
system.cpu.op_class_0::SimdSqrt                     0      0.00%     39.72% # Class of committed instruction
system.cpu.op_class_0::SimdFloatAdd                 0      0.00%     39.72% # Class of committed instruction
system.cpu.op_class_0::SimdFloatAlu                 0      0.00%     39.72% # Class of committed instruction
system.cpu.op_class_0::SimdFloatCmp                 0      0.00%     39.72% # Class of committed instruction
system.cpu.op_class_0::SimdFloatCvt                 0      0.00%     39.72% # Class of committed instruction
system.cpu.op_class_0::SimdFloatDiv                 0      0.00%     39.72% # Class of committed instruction
system.cpu.op_class_0::SimdFloatMisc              102      0.00%     39.72% # Class of committed instruction
system.cpu.op_class_0::SimdFloatMult                0      0.00%     39.72% # Class of committed instruction
system.cpu.op_class_0::SimdFloatMultAcc             0      0.00%     39.72% # Class of committed instruction
system.cpu.op_class_0::SimdFloatSqrt                0      0.00%     39.72% # Class of committed instruction
system.cpu.op_class_0::SimdReduceAdd                0      0.00%     39.72% # Class of committed instruction
system.cpu.op_class_0::SimdReduceAlu                0      0.00%     39.72% # Class of committed instruction
system.cpu.op_class_0::SimdReduceCmp                0      0.00%     39.72% # Class of committed instruction
system.cpu.op_class_0::SimdFloatReduceAdd            0      0.00%     39.72% # Class of committed instruction
system.cpu.op_class_0::SimdFloatReduceCmp            0      0.00%     39.72% # Class of committed instruction
system.cpu.op_class_0::SimdAes                      0      0.00%     39.72% # Class of committed instruction
system.cpu.op_class_0::SimdAesMix                   0      0.00%     39.72% # Class of committed instruction
system.cpu.op_class_0::SimdSha1Hash                 0      0.00%     39.72% # Class of committed instruction
system.cpu.op_class_0::SimdSha1Hash2                0      0.00%     39.72% # Class of committed instruction
system.cpu.op_class_0::SimdSha256Hash               0      0.00%     39.72% # Class of committed instruction
system.cpu.op_class_0::SimdSha256Hash2              0      0.00%     39.72% # Class of committed instruction
system.cpu.op_class_0::SimdShaSigma2                0      0.00%     39.72% # Class of committed instruction
system.cpu.op_class_0::SimdShaSigma3                0      0.00%     39.72% # Class of committed instruction
system.cpu.op_class_0::SimdPredAlu                  0      0.00%     39.72% # Class of committed instruction
system.cpu.op_class_0::MemRead               47464384     47.35%     87.07% # Class of committed instruction
system.cpu.op_class_0::MemWrite              12965284     12.93%    100.00% # Class of committed instruction
system.cpu.op_class_0::FloatMemRead                 0      0.00%    100.00% # Class of committed instruction
system.cpu.op_class_0::FloatMemWrite                0      0.00%    100.00% # Class of committed instruction
system.cpu.op_class_0::IprAccess                    0      0.00%    100.00% # Class of committed instruction
system.cpu.op_class_0::InstPrefetch                 0      0.00%    100.00% # Class of committed instruction
system.cpu.op_class_0::total                100245691                       # Class of committed instruction
system.cpu.tickCycles                       129890288                       # Number of cycles that the object actually ticked
system.cpu.workload.numSyscalls                    84                       # Number of system calls
system.membus.snoop_filter.hit_multi_requests            0                       # Number of requests hitting in the snoop filter with multiple (>1) holders of the requested data.
system.membus.snoop_filter.hit_multi_snoops            0                       # Number of snoops hitting in the snoop filter with multiple (>1) holders of the requested data.
system.membus.snoop_filter.hit_single_requests       177135                       # Number of requests hitting in the snoop filter with a single holder of the requested data.
system.membus.snoop_filter.hit_single_snoops            0                       # Number of snoops hitting in the snoop filter with a single holder of the requested data.
system.membus.snoop_filter.tot_requests        387414                       # Total number of requests made to the snoop filter.
system.membus.snoop_filter.tot_snoops               0                       # Total number of snoops made to the snoop filter.
system.tol2bus.snoop_filter.hit_multi_requests           25                       # Number of requests hitting in the snoop filter with multiple (>1) holders of the requested data.
system.tol2bus.snoop_filter.hit_multi_snoops            0                       # Number of snoops hitting in the snoop filter with multiple (>1) holders of the requested data.
system.tol2bus.snoop_filter.hit_single_requests       579717                       # Number of requests hitting in the snoop filter with a single holder of the requested data.
system.tol2bus.snoop_filter.hit_single_snoops          644                       # Number of snoops hitting in the snoop filter with a single holder of the requested data.
system.tol2bus.snoop_filter.tot_requests      1161943                       # Total number of requests made to the snoop filter.
system.tol2bus.snoop_filter.tot_snoops            644                       # Total number of snoops made to the snoop filter.
system.clk_domain.clock                          1000                       # Clock period in ticks
system.cpu.branchPred.lookups                 6046909                       # Number of BP lookups
system.cpu.branchPred.condPredicted           4456930                       # Number of conditional branches predicted
system.cpu.branchPred.condIncorrect            188275                       # Number of conditional branches incorrect
system.cpu.branchPred.BTBLookups              4573546                       # Number of BTB lookups
system.cpu.branchPred.BTBHits                 4571366                       # Number of BTB hits
system.cpu.branchPred.BTBHitPct             99.952335                       # BTB Hit Percentage
system.cpu.branchPred.RASUsed                  136251                       # Number of times the RAS was used to get a target.
system.cpu.branchPred.RASIncorrect                117                       # Number of incorrect RAS predictions.
system.cpu.branchPred.indirectLookups             507                       # Number of indirect predictor lookups.
system.cpu.branchPred.indirectHits                274                       # Number of indirect target hits.
system.cpu.branchPred.indirectMisses              233                       # Number of indirect misses.
system.cpu.branchPred.indirectMispredicted          145                       # Number of mispredicted indirect branches.
system.cpu.dcache.demand_hits::.cpu.data     57704041                       # number of demand (read+write) hits
system.cpu.dcache.demand_hits::total         57704041                       # number of demand (read+write) hits
system.cpu.dcache.overall_hits::.cpu.data     57704055                       # number of overall hits
system.cpu.dcache.overall_hits::total        57704055                       # number of overall hits
system.cpu.dcache.demand_misses::.cpu.data       644333                       # number of demand (read+write) misses
system.cpu.dcache.demand_misses::total         644333                       # number of demand (read+write) misses
system.cpu.dcache.overall_misses::.cpu.data       644349                       # number of overall misses
system.cpu.dcache.overall_misses::total        644349                       # number of overall misses
system.cpu.dcache.demand_miss_latency::.cpu.data  24814067500                       # number of demand (read+write) miss cycles
system.cpu.dcache.demand_miss_latency::total  24814067500                       # number of demand (read+write) miss cycles
system.cpu.dcache.overall_miss_latency::.cpu.data  24814067500                       # number of overall miss cycles
system.cpu.dcache.overall_miss_latency::total  24814067500                       # number of overall miss cycles
system.cpu.dcache.demand_accesses::.cpu.data     58348374                       # number of demand (read+write) accesses
system.cpu.dcache.demand_accesses::total     58348374                       # number of demand (read+write) accesses
system.cpu.dcache.overall_accesses::.cpu.data     58348404                       # number of overall (read+write) accesses
system.cpu.dcache.overall_accesses::total     58348404                       # number of overall (read+write) accesses
system.cpu.dcache.demand_miss_rate::.cpu.data     0.011043                       # miss rate for demand accesses
system.cpu.dcache.demand_miss_rate::total     0.011043                       # miss rate for demand accesses
system.cpu.dcache.overall_miss_rate::.cpu.data     0.011043                       # miss rate for overall accesses
system.cpu.dcache.overall_miss_rate::total     0.011043                       # miss rate for overall accesses
system.cpu.dcache.demand_avg_miss_latency::.cpu.data 38511.247290                       # average overall miss latency
system.cpu.dcache.demand_avg_miss_latency::total 38511.247290                       # average overall miss latency
system.cpu.dcache.overall_avg_miss_latency::.cpu.data 38510.291007                       # average overall miss latency
system.cpu.dcache.overall_avg_miss_latency::total 38510.291007                       # average overall miss latency
system.cpu.dcache.blocked_cycles::no_mshrs            0                       # number of cycles access was blocked
system.cpu.dcache.blocked_cycles::no_targets            0                       # number of cycles access was blocked
system.cpu.dcache.blocked::no_mshrs                 0                       # number of cycles access was blocked
system.cpu.dcache.blocked::no_targets               0                       # number of cycles access was blocked
system.cpu.dcache.avg_blocked_cycles::no_mshrs          nan                       # average number of cycles each access was blocked
system.cpu.dcache.avg_blocked_cycles::no_targets          nan                       # average number of cycles each access was blocked
system.cpu.dcache.writebacks::.writebacks       483274                       # number of writebacks
system.cpu.dcache.writebacks::total            483274                       # number of writebacks
system.cpu.dcache.demand_mshr_hits::.cpu.data        62989                       # number of demand (read+write) MSHR hits
system.cpu.dcache.demand_mshr_hits::total        62989                       # number of demand (read+write) MSHR hits
system.cpu.dcache.overall_mshr_hits::.cpu.data        62989                       # number of overall MSHR hits
system.cpu.dcache.overall_mshr_hits::total        62989                       # number of overall MSHR hits
system.cpu.dcache.demand_mshr_misses::.cpu.data       581344                       # number of demand (read+write) MSHR misses
system.cpu.dcache.demand_mshr_misses::total       581344                       # number of demand (read+write) MSHR misses
system.cpu.dcache.overall_mshr_misses::.cpu.data       581355                       # number of overall MSHR misses
system.cpu.dcache.overall_mshr_misses::total       581355                       # number of overall MSHR misses
system.cpu.dcache.demand_mshr_miss_latency::.cpu.data  22479760500                       # number of demand (read+write) MSHR miss cycles
system.cpu.dcache.demand_mshr_miss_latency::total  22479760500                       # number of demand (read+write) MSHR miss cycles
system.cpu.dcache.overall_mshr_miss_latency::.cpu.data  22480706000                       # number of overall MSHR miss cycles
system.cpu.dcache.overall_mshr_miss_latency::total  22480706000                       # number of overall MSHR miss cycles
system.cpu.dcache.demand_mshr_miss_rate::.cpu.data     0.009963                       # mshr miss rate for demand accesses
system.cpu.dcache.demand_mshr_miss_rate::total     0.009963                       # mshr miss rate for demand accesses
system.cpu.dcache.overall_mshr_miss_rate::.cpu.data     0.009964                       # mshr miss rate for overall accesses
system.cpu.dcache.overall_mshr_miss_rate::total     0.009964                       # mshr miss rate for overall accesses
system.cpu.dcache.demand_avg_mshr_miss_latency::.cpu.data 38668.603271                       # average overall mshr miss latency
system.cpu.dcache.demand_avg_mshr_miss_latency::total 38668.603271                       # average overall mshr miss latency
system.cpu.dcache.overall_avg_mshr_miss_latency::.cpu.data 38669.497983                       # average overall mshr miss latency
system.cpu.dcache.overall_avg_mshr_miss_latency::total 38669.497983                       # average overall mshr miss latency
system.cpu.dcache.replacements                 579307                       # number of replacements
system.cpu.dcache.ReadReq_hits::.cpu.data     45068131                       # number of ReadReq hits
system.cpu.dcache.ReadReq_hits::total        45068131                       # number of ReadReq hits
system.cpu.dcache.ReadReq_misses::.cpu.data       324016                       # number of ReadReq misses
system.cpu.dcache.ReadReq_misses::total        324016                       # number of ReadReq misses
system.cpu.dcache.ReadReq_miss_latency::.cpu.data   8859739500                       # number of ReadReq miss cycles
system.cpu.dcache.ReadReq_miss_latency::total   8859739500                       # number of ReadReq miss cycles
system.cpu.dcache.ReadReq_accesses::.cpu.data     45392147                       # number of ReadReq accesses(hits+misses)
system.cpu.dcache.ReadReq_accesses::total     45392147                       # number of ReadReq accesses(hits+misses)
system.cpu.dcache.ReadReq_miss_rate::.cpu.data     0.007138                       # miss rate for ReadReq accesses
system.cpu.dcache.ReadReq_miss_rate::total     0.007138                       # miss rate for ReadReq accesses
system.cpu.dcache.ReadReq_avg_miss_latency::.cpu.data 27343.524702                       # average ReadReq miss latency
system.cpu.dcache.ReadReq_avg_miss_latency::total 27343.524702                       # average ReadReq miss latency
system.cpu.dcache.ReadReq_mshr_hits::.cpu.data           44                       # number of ReadReq MSHR hits
system.cpu.dcache.ReadReq_mshr_hits::total           44                       # number of ReadReq MSHR hits
system.cpu.dcache.ReadReq_mshr_misses::.cpu.data       323972                       # number of ReadReq MSHR misses
system.cpu.dcache.ReadReq_mshr_misses::total       323972                       # number of ReadReq MSHR misses
system.cpu.dcache.ReadReq_mshr_miss_latency::.cpu.data   8532207000                       # number of ReadReq MSHR miss cycles
system.cpu.dcache.ReadReq_mshr_miss_latency::total   8532207000                       # number of ReadReq MSHR miss cycles
system.cpu.dcache.ReadReq_mshr_miss_rate::.cpu.data     0.007137                       # mshr miss rate for ReadReq accesses
system.cpu.dcache.ReadReq_mshr_miss_rate::total     0.007137                       # mshr miss rate for ReadReq accesses
system.cpu.dcache.ReadReq_avg_mshr_miss_latency::.cpu.data 26336.248194                       # average ReadReq mshr miss latency
system.cpu.dcache.ReadReq_avg_mshr_miss_latency::total 26336.248194                       # average ReadReq mshr miss latency
system.cpu.dcache.WriteReq_hits::.cpu.data     12635910                       # number of WriteReq hits
system.cpu.dcache.WriteReq_hits::total       12635910                       # number of WriteReq hits
system.cpu.dcache.WriteReq_misses::.cpu.data       320317                       # number of WriteReq misses
system.cpu.dcache.WriteReq_misses::total       320317                       # number of WriteReq misses
system.cpu.dcache.WriteReq_miss_latency::.cpu.data  15954328000                       # number of WriteReq miss cycles
system.cpu.dcache.WriteReq_miss_latency::total  15954328000                       # number of WriteReq miss cycles
system.cpu.dcache.WriteReq_accesses::.cpu.data     12956227                       # number of WriteReq accesses(hits+misses)
system.cpu.dcache.WriteReq_accesses::total     12956227                       # number of WriteReq accesses(hits+misses)
system.cpu.dcache.WriteReq_miss_rate::.cpu.data     0.024723                       # miss rate for WriteReq accesses
system.cpu.dcache.WriteReq_miss_rate::total     0.024723                       # miss rate for WriteReq accesses
system.cpu.dcache.WriteReq_avg_miss_latency::.cpu.data 49807.934015                       # average WriteReq miss latency
system.cpu.dcache.WriteReq_avg_miss_latency::total 49807.934015                       # average WriteReq miss latency
system.cpu.dcache.WriteReq_mshr_hits::.cpu.data        62945                       # number of WriteReq MSHR hits
system.cpu.dcache.WriteReq_mshr_hits::total        62945                       # number of WriteReq MSHR hits
system.cpu.dcache.WriteReq_mshr_misses::.cpu.data       257372                       # number of WriteReq MSHR misses
system.cpu.dcache.WriteReq_mshr_misses::total       257372                       # number of WriteReq MSHR misses
system.cpu.dcache.WriteReq_mshr_miss_latency::.cpu.data  13947553500                       # number of WriteReq MSHR miss cycles
system.cpu.dcache.WriteReq_mshr_miss_latency::total  13947553500                       # number of WriteReq MSHR miss cycles
system.cpu.dcache.WriteReq_mshr_miss_rate::.cpu.data     0.019865                       # mshr miss rate for WriteReq accesses
system.cpu.dcache.WriteReq_mshr_miss_rate::total     0.019865                       # mshr miss rate for WriteReq accesses
system.cpu.dcache.WriteReq_avg_mshr_miss_latency::.cpu.data 54192.194567                       # average WriteReq mshr miss latency
system.cpu.dcache.WriteReq_avg_mshr_miss_latency::total 54192.194567                       # average WriteReq mshr miss latency
system.cpu.dcache.SoftPFReq_hits::.cpu.data           14                       # number of SoftPFReq hits
system.cpu.dcache.SoftPFReq_hits::total            14                       # number of SoftPFReq hits
system.cpu.dcache.SoftPFReq_misses::.cpu.data           16                       # number of SoftPFReq misses
system.cpu.dcache.SoftPFReq_misses::total           16                       # number of SoftPFReq misses
system.cpu.dcache.SoftPFReq_accesses::.cpu.data           30                       # number of SoftPFReq accesses(hits+misses)
system.cpu.dcache.SoftPFReq_accesses::total           30                       # number of SoftPFReq accesses(hits+misses)
system.cpu.dcache.SoftPFReq_miss_rate::.cpu.data     0.533333                       # miss rate for SoftPFReq accesses
system.cpu.dcache.SoftPFReq_miss_rate::total     0.533333                       # miss rate for SoftPFReq accesses
system.cpu.dcache.SoftPFReq_mshr_misses::.cpu.data           11                       # number of SoftPFReq MSHR misses
system.cpu.dcache.SoftPFReq_mshr_misses::total           11                       # number of SoftPFReq MSHR misses
system.cpu.dcache.SoftPFReq_mshr_miss_latency::.cpu.data       945500                       # number of SoftPFReq MSHR miss cycles
system.cpu.dcache.SoftPFReq_mshr_miss_latency::total       945500                       # number of SoftPFReq MSHR miss cycles
system.cpu.dcache.SoftPFReq_mshr_miss_rate::.cpu.data     0.366667                       # mshr miss rate for SoftPFReq accesses
system.cpu.dcache.SoftPFReq_mshr_miss_rate::total     0.366667                       # mshr miss rate for SoftPFReq accesses
system.cpu.dcache.SoftPFReq_avg_mshr_miss_latency::.cpu.data 85954.545455                       # average SoftPFReq mshr miss latency
system.cpu.dcache.SoftPFReq_avg_mshr_miss_latency::total 85954.545455                       # average SoftPFReq mshr miss latency
system.cpu.dcache.LoadLockedReq_hits::.cpu.data           61                       # number of LoadLockedReq hits
system.cpu.dcache.LoadLockedReq_hits::total           61                       # number of LoadLockedReq hits
system.cpu.dcache.LoadLockedReq_misses::.cpu.data            1                       # number of LoadLockedReq misses
system.cpu.dcache.LoadLockedReq_misses::total            1                       # number of LoadLockedReq misses
system.cpu.dcache.LoadLockedReq_miss_latency::.cpu.data        72000                       # number of LoadLockedReq miss cycles
system.cpu.dcache.LoadLockedReq_miss_latency::total        72000                       # number of LoadLockedReq miss cycles
system.cpu.dcache.LoadLockedReq_accesses::.cpu.data           62                       # number of LoadLockedReq accesses(hits+misses)
system.cpu.dcache.LoadLockedReq_accesses::total           62                       # number of LoadLockedReq accesses(hits+misses)
system.cpu.dcache.LoadLockedReq_miss_rate::.cpu.data     0.016129                       # miss rate for LoadLockedReq accesses
system.cpu.dcache.LoadLockedReq_miss_rate::total     0.016129                       # miss rate for LoadLockedReq accesses
system.cpu.dcache.LoadLockedReq_avg_miss_latency::.cpu.data        72000                       # average LoadLockedReq miss latency
system.cpu.dcache.LoadLockedReq_avg_miss_latency::total        72000                       # average LoadLockedReq miss latency
system.cpu.dcache.LoadLockedReq_mshr_misses::.cpu.data            1                       # number of LoadLockedReq MSHR misses
system.cpu.dcache.LoadLockedReq_mshr_misses::total            1                       # number of LoadLockedReq MSHR misses
system.cpu.dcache.LoadLockedReq_mshr_miss_latency::.cpu.data        71000                       # number of LoadLockedReq MSHR miss cycles
system.cpu.dcache.LoadLockedReq_mshr_miss_latency::total        71000                       # number of LoadLockedReq MSHR miss cycles
system.cpu.dcache.LoadLockedReq_mshr_miss_rate::.cpu.data     0.016129                       # mshr miss rate for LoadLockedReq accesses
system.cpu.dcache.LoadLockedReq_mshr_miss_rate::total     0.016129                       # mshr miss rate for LoadLockedReq accesses
system.cpu.dcache.LoadLockedReq_avg_mshr_miss_latency::.cpu.data        71000                       # average LoadLockedReq mshr miss latency
system.cpu.dcache.LoadLockedReq_avg_mshr_miss_latency::total        71000                       # average LoadLockedReq mshr miss latency
system.cpu.dcache.StoreCondReq_hits::.cpu.data           62                       # number of StoreCondReq hits
system.cpu.dcache.StoreCondReq_hits::total           62                       # number of StoreCondReq hits
system.cpu.dcache.StoreCondReq_accesses::.cpu.data           62                       # number of StoreCondReq accesses(hits+misses)
system.cpu.dcache.StoreCondReq_accesses::total           62                       # number of StoreCondReq accesses(hits+misses)
system.cpu.dcache.power_state.pwrStateResidencyTicks::UNDEFINED  82382750500                       # Cumulative time (in ticks) in various power states
system.cpu.dcache.tags.tagsinuse          2012.429623                       # Cycle average of tags in use
system.cpu.dcache.tags.total_refs            58285533                       # Total number of references to valid blocks.
system.cpu.dcache.tags.sampled_refs            581355                       # Sample count of references to valid blocks.
system.cpu.dcache.tags.avg_refs            100.258075                       # Average number of references to valid blocks.
system.cpu.dcache.tags.warmup_cycle            176500                       # Cycle when the warmup percentage was hit.
system.cpu.dcache.tags.occ_blocks::.cpu.data  2012.429623                       # Average occupied blocks per requestor
system.cpu.dcache.tags.occ_percent::.cpu.data     0.982632                       # Average percentage of cache occupancy
system.cpu.dcache.tags.occ_percent::total     0.982632                       # Average percentage of cache occupancy
system.cpu.dcache.tags.occ_task_id_blocks::1024         2048                       # Occupied blocks per task id
system.cpu.dcache.tags.age_task_id_blocks_1024::0          416                       # Occupied blocks per task id
system.cpu.dcache.tags.age_task_id_blocks_1024::1          468                       # Occupied blocks per task id
system.cpu.dcache.tags.age_task_id_blocks_1024::2         1130                       # Occupied blocks per task id
system.cpu.dcache.tags.age_task_id_blocks_1024::3           31                       # Occupied blocks per task id
system.cpu.dcache.tags.age_task_id_blocks_1024::4            3                       # Occupied blocks per task id
system.cpu.dcache.tags.occ_task_id_percent::1024            1                       # Percentage of cache occupancy per task id
system.cpu.dcache.tags.tag_accesses         233975467                       # Number of tag accesses
system.cpu.dcache.tags.data_accesses        233975467                       # Number of data accesses
system.cpu.dcache.tags.power_state.pwrStateResidencyTicks::UNDEFINED  82382750500                       # Cumulative time (in ticks) in various power states
system.cpu.dtb.instHits                             0                       # ITB inst hits
system.cpu.dtb.instMisses                           0                       # ITB inst misses
system.cpu.dtb.readHits                             0                       # DTB read hits
system.cpu.dtb.readMisses                           0                       # DTB read misses
system.cpu.dtb.writeHits                            0                       # DTB write hits
system.cpu.dtb.writeMisses                          0                       # DTB write misses
system.cpu.dtb.inserts                              0                       # Number of times an entry is inserted into the TLB
system.cpu.dtb.flushTlb                             0                       # Number of times complete TLB was flushed
system.cpu.dtb.flushTlbMva                          0                       # Number of times TLB was flushed by MVA
system.cpu.dtb.flushTlbMvaAsid                      0                       # Number of times TLB was flushed by MVA & ASID
system.cpu.dtb.flushTlbAsid                         0                       # Number of times TLB was flushed by ASID
system.cpu.dtb.flushedEntries                       0                       # Number of entries that have been flushed from TLB
system.cpu.dtb.alignFaults                          0                       # Number of TLB faults due to alignment restrictions
system.cpu.dtb.prefetchFaults                       0                       # Number of TLB faults due to prefetch
system.cpu.dtb.domainFaults                         0                       # Number of TLB faults due to domain restrictions
system.cpu.dtb.permsFaults                          0                       # Number of TLB faults due to permissions restrictions
system.cpu.dtb.readAccesses                         0                       # DTB read accesses
system.cpu.dtb.writeAccesses                        0                       # DTB write accesses
system.cpu.dtb.instAccesses                         0                       # ITB inst accesses
system.cpu.dtb.hits                                 0                       # Total TLB (inst and data) hits
system.cpu.dtb.misses                               0                       # Total TLB (inst and data) misses
system.cpu.dtb.accesses                             0                       # Total TLB (inst and data) accesses
system.cpu.dtb.stage2_mmu.stage2_tlb.instHits            0                       # ITB inst hits
system.cpu.dtb.stage2_mmu.stage2_tlb.instMisses            0                       # ITB inst misses
system.cpu.dtb.stage2_mmu.stage2_tlb.readHits            0                       # DTB read hits
system.cpu.dtb.stage2_mmu.stage2_tlb.readMisses            0                       # DTB read misses
system.cpu.dtb.stage2_mmu.stage2_tlb.writeHits            0                       # DTB write hits
system.cpu.dtb.stage2_mmu.stage2_tlb.writeMisses            0                       # DTB write misses
system.cpu.dtb.stage2_mmu.stage2_tlb.inserts            0                       # Number of times an entry is inserted into the TLB
system.cpu.dtb.stage2_mmu.stage2_tlb.flushTlb            0                       # Number of times complete TLB was flushed
system.cpu.dtb.stage2_mmu.stage2_tlb.flushTlbMva            0                       # Number of times TLB was flushed by MVA
system.cpu.dtb.stage2_mmu.stage2_tlb.flushTlbMvaAsid            0                       # Number of times TLB was flushed by MVA & ASID
system.cpu.dtb.stage2_mmu.stage2_tlb.flushTlbAsid            0                       # Number of times TLB was flushed by ASID
system.cpu.dtb.stage2_mmu.stage2_tlb.flushedEntries            0                       # Number of entries that have been flushed from TLB
system.cpu.dtb.stage2_mmu.stage2_tlb.alignFaults            0                       # Number of TLB faults due to alignment restrictions
system.cpu.dtb.stage2_mmu.stage2_tlb.prefetchFaults            0                       # Number of TLB faults due to prefetch
system.cpu.dtb.stage2_mmu.stage2_tlb.domainFaults            0                       # Number of TLB faults due to domain restrictions
system.cpu.dtb.stage2_mmu.stage2_tlb.permsFaults            0                       # Number of TLB faults due to permissions restrictions
system.cpu.dtb.stage2_mmu.stage2_tlb.readAccesses            0                       # DTB read accesses
system.cpu.dtb.stage2_mmu.stage2_tlb.writeAccesses            0                       # DTB write accesses
system.cpu.dtb.stage2_mmu.stage2_tlb.instAccesses            0                       # ITB inst accesses
system.cpu.dtb.stage2_mmu.stage2_tlb.hits            0                       # Total TLB (inst and data) hits
system.cpu.dtb.stage2_mmu.stage2_tlb.misses            0                       # Total TLB (inst and data) misses
system.cpu.dtb.stage2_mmu.stage2_tlb.accesses            0                       # Total TLB (inst and data) accesses
system.cpu.dtb.stage2_mmu.stage2_tlb.walker.walks            0                       # Table walker walks requested
system.cpu.dtb.stage2_mmu.stage2_tlb.walker.requestOrigin_Requested::Data            0                       # Table walker requests started/completed, data/inst
system.cpu.dtb.stage2_mmu.stage2_tlb.walker.requestOrigin_Requested::Inst            0                       # Table walker requests started/completed, data/inst
system.cpu.dtb.stage2_mmu.stage2_tlb.walker.requestOrigin_Requested::total            0                       # Table walker requests started/completed, data/inst
system.cpu.dtb.stage2_mmu.stage2_tlb.walker.requestOrigin_Completed::Data            0                       # Table walker requests started/completed, data/inst
system.cpu.dtb.stage2_mmu.stage2_tlb.walker.requestOrigin_Completed::Inst            0                       # Table walker requests started/completed, data/inst
system.cpu.dtb.stage2_mmu.stage2_tlb.walker.requestOrigin_Completed::total            0                       # Table walker requests started/completed, data/inst
system.cpu.dtb.stage2_mmu.stage2_tlb.walker.requestOrigin::total            0                       # Table walker requests started/completed, data/inst
system.cpu.dtb.stage2_mmu.stage2_tlb.walker.power_state.pwrStateResidencyTicks::UNDEFINED  82382750500                       # Cumulative time (in ticks) in various power states
system.cpu.dtb.walker.walks                         0                       # Table walker walks requested
system.cpu.dtb.walker.requestOrigin_Requested::Data            0                       # Table walker requests started/completed, data/inst
system.cpu.dtb.walker.requestOrigin_Requested::Inst            0                       # Table walker requests started/completed, data/inst
system.cpu.dtb.walker.requestOrigin_Requested::total            0                       # Table walker requests started/completed, data/inst
system.cpu.dtb.walker.requestOrigin_Completed::Data            0                       # Table walker requests started/completed, data/inst
system.cpu.dtb.walker.requestOrigin_Completed::Inst            0                       # Table walker requests started/completed, data/inst
system.cpu.dtb.walker.requestOrigin_Completed::total            0                       # Table walker requests started/completed, data/inst
system.cpu.dtb.walker.requestOrigin::total            0                       # Table walker requests started/completed, data/inst
system.cpu.dtb.walker.power_state.pwrStateResidencyTicks::UNDEFINED  82382750500                       # Cumulative time (in ticks) in various power states
system.cpu.fetch2.intInstructions            35329463                       # Number of integer instructions successfully decoded
system.cpu.fetch2.fpInstructions                    0                       # Number of floating point instructions successfully decoded
system.cpu.fetch2.vecInstructions                   0                       # Number of SIMD instructions successfully decoded
system.cpu.fetch2.loadInstructions           49015402                       # Number of memory load instructions successfully decoded
system.cpu.fetch2.storeInstructions          13268325                       # Number of memory store instructions successfully decoded
system.cpu.fetch2.amoInstructions                   0                       # Number of memory atomic instructions successfully decoded
system.cpu.icache.demand_hits::.cpu.inst     18251955                       # number of demand (read+write) hits
system.cpu.icache.demand_hits::total         18251955                       # number of demand (read+write) hits
system.cpu.icache.overall_hits::.cpu.inst     18251955                       # number of overall hits
system.cpu.icache.overall_hits::total        18251955                       # number of overall hits
system.cpu.icache.demand_misses::.cpu.inst          871                       # number of demand (read+write) misses
system.cpu.icache.demand_misses::total            871                       # number of demand (read+write) misses
system.cpu.icache.overall_misses::.cpu.inst          871                       # number of overall misses
system.cpu.icache.overall_misses::total           871                       # number of overall misses
system.cpu.icache.demand_miss_latency::.cpu.inst     66669000                       # number of demand (read+write) miss cycles
system.cpu.icache.demand_miss_latency::total     66669000                       # number of demand (read+write) miss cycles
system.cpu.icache.overall_miss_latency::.cpu.inst     66669000                       # number of overall miss cycles
system.cpu.icache.overall_miss_latency::total     66669000                       # number of overall miss cycles
system.cpu.icache.demand_accesses::.cpu.inst     18252826                       # number of demand (read+write) accesses
system.cpu.icache.demand_accesses::total     18252826                       # number of demand (read+write) accesses
system.cpu.icache.overall_accesses::.cpu.inst     18252826                       # number of overall (read+write) accesses
system.cpu.icache.overall_accesses::total     18252826                       # number of overall (read+write) accesses
system.cpu.icache.demand_miss_rate::.cpu.inst     0.000048                       # miss rate for demand accesses
system.cpu.icache.demand_miss_rate::total     0.000048                       # miss rate for demand accesses
system.cpu.icache.overall_miss_rate::.cpu.inst     0.000048                       # miss rate for overall accesses
system.cpu.icache.overall_miss_rate::total     0.000048                       # miss rate for overall accesses
system.cpu.icache.demand_avg_miss_latency::.cpu.inst 76543.053961                       # average overall miss latency
system.cpu.icache.demand_avg_miss_latency::total 76543.053961                       # average overall miss latency
system.cpu.icache.overall_avg_miss_latency::.cpu.inst 76543.053961                       # average overall miss latency
system.cpu.icache.overall_avg_miss_latency::total 76543.053961                       # average overall miss latency
system.cpu.icache.blocked_cycles::no_mshrs            0                       # number of cycles access was blocked
system.cpu.icache.blocked_cycles::no_targets            0                       # number of cycles access was blocked
system.cpu.icache.blocked::no_mshrs                 0                       # number of cycles access was blocked
system.cpu.icache.blocked::no_targets               0                       # number of cycles access was blocked
system.cpu.icache.avg_blocked_cycles::no_mshrs          nan                       # average number of cycles each access was blocked
system.cpu.icache.avg_blocked_cycles::no_targets          nan                       # average number of cycles each access was blocked
system.cpu.icache.writebacks::.writebacks          411                       # number of writebacks
system.cpu.icache.writebacks::total               411                       # number of writebacks
system.cpu.icache.demand_mshr_misses::.cpu.inst          871                       # number of demand (read+write) MSHR misses
system.cpu.icache.demand_mshr_misses::total          871                       # number of demand (read+write) MSHR misses
system.cpu.icache.overall_mshr_misses::.cpu.inst          871                       # number of overall MSHR misses
system.cpu.icache.overall_mshr_misses::total          871                       # number of overall MSHR misses
system.cpu.icache.demand_mshr_miss_latency::.cpu.inst     65798000                       # number of demand (read+write) MSHR miss cycles
system.cpu.icache.demand_mshr_miss_latency::total     65798000                       # number of demand (read+write) MSHR miss cycles
system.cpu.icache.overall_mshr_miss_latency::.cpu.inst     65798000                       # number of overall MSHR miss cycles
system.cpu.icache.overall_mshr_miss_latency::total     65798000                       # number of overall MSHR miss cycles
system.cpu.icache.demand_mshr_miss_rate::.cpu.inst     0.000048                       # mshr miss rate for demand accesses
system.cpu.icache.demand_mshr_miss_rate::total     0.000048                       # mshr miss rate for demand accesses
system.cpu.icache.overall_mshr_miss_rate::.cpu.inst     0.000048                       # mshr miss rate for overall accesses
system.cpu.icache.overall_mshr_miss_rate::total     0.000048                       # mshr miss rate for overall accesses
system.cpu.icache.demand_avg_mshr_miss_latency::.cpu.inst 75543.053961                       # average overall mshr miss latency
system.cpu.icache.demand_avg_mshr_miss_latency::total 75543.053961                       # average overall mshr miss latency
system.cpu.icache.overall_avg_mshr_miss_latency::.cpu.inst 75543.053961                       # average overall mshr miss latency
system.cpu.icache.overall_avg_mshr_miss_latency::total 75543.053961                       # average overall mshr miss latency
system.cpu.icache.replacements                    411                       # number of replacements
system.cpu.icache.ReadReq_hits::.cpu.inst     18251955                       # number of ReadReq hits
system.cpu.icache.ReadReq_hits::total        18251955                       # number of ReadReq hits
system.cpu.icache.ReadReq_misses::.cpu.inst          871                       # number of ReadReq misses
system.cpu.icache.ReadReq_misses::total           871                       # number of ReadReq misses
system.cpu.icache.ReadReq_miss_latency::.cpu.inst     66669000                       # number of ReadReq miss cycles
system.cpu.icache.ReadReq_miss_latency::total     66669000                       # number of ReadReq miss cycles
system.cpu.icache.ReadReq_accesses::.cpu.inst     18252826                       # number of ReadReq accesses(hits+misses)
system.cpu.icache.ReadReq_accesses::total     18252826                       # number of ReadReq accesses(hits+misses)
system.cpu.icache.ReadReq_miss_rate::.cpu.inst     0.000048                       # miss rate for ReadReq accesses
system.cpu.icache.ReadReq_miss_rate::total     0.000048                       # miss rate for ReadReq accesses
system.cpu.icache.ReadReq_avg_miss_latency::.cpu.inst 76543.053961                       # average ReadReq miss latency
system.cpu.icache.ReadReq_avg_miss_latency::total 76543.053961                       # average ReadReq miss latency
system.cpu.icache.ReadReq_mshr_misses::.cpu.inst          871                       # number of ReadReq MSHR misses
system.cpu.icache.ReadReq_mshr_misses::total          871                       # number of ReadReq MSHR misses
system.cpu.icache.ReadReq_mshr_miss_latency::.cpu.inst     65798000                       # number of ReadReq MSHR miss cycles
system.cpu.icache.ReadReq_mshr_miss_latency::total     65798000                       # number of ReadReq MSHR miss cycles
system.cpu.icache.ReadReq_mshr_miss_rate::.cpu.inst     0.000048                       # mshr miss rate for ReadReq accesses
system.cpu.icache.ReadReq_mshr_miss_rate::total     0.000048                       # mshr miss rate for ReadReq accesses
system.cpu.icache.ReadReq_avg_mshr_miss_latency::.cpu.inst 75543.053961                       # average ReadReq mshr miss latency
system.cpu.icache.ReadReq_avg_mshr_miss_latency::total 75543.053961                       # average ReadReq mshr miss latency
system.cpu.icache.power_state.pwrStateResidencyTicks::UNDEFINED  82382750500                       # Cumulative time (in ticks) in various power states
system.cpu.icache.tags.tagsinuse           425.706842                       # Cycle average of tags in use
system.cpu.icache.tags.total_refs            18252826                       # Total number of references to valid blocks.
system.cpu.icache.tags.sampled_refs               871                       # Sample count of references to valid blocks.
system.cpu.icache.tags.avg_refs          20956.172216                       # Average number of references to valid blocks.
system.cpu.icache.tags.warmup_cycle             87500                       # Cycle when the warmup percentage was hit.
system.cpu.icache.tags.occ_blocks::.cpu.inst   425.706842                       # Average occupied blocks per requestor
system.cpu.icache.tags.occ_percent::.cpu.inst     0.831459                       # Average percentage of cache occupancy
system.cpu.icache.tags.occ_percent::total     0.831459                       # Average percentage of cache occupancy
system.cpu.icache.tags.occ_task_id_blocks::1024          460                       # Occupied blocks per task id
system.cpu.icache.tags.age_task_id_blocks_1024::4          460                       # Occupied blocks per task id
system.cpu.icache.tags.occ_task_id_percent::1024     0.898438                       # Percentage of cache occupancy per task id
system.cpu.icache.tags.tag_accesses          36506523                       # Number of tag accesses
system.cpu.icache.tags.data_accesses         36506523                       # Number of data accesses
system.cpu.icache.tags.power_state.pwrStateResidencyTicks::UNDEFINED  82382750500                       # Cumulative time (in ticks) in various power states
system.cpu.itb.instHits                             0                       # ITB inst hits
system.cpu.itb.instMisses                           0                       # ITB inst misses
system.cpu.itb.readHits                             0                       # DTB read hits
system.cpu.itb.readMisses                           0                       # DTB read misses
system.cpu.itb.writeHits                            0                       # DTB write hits
system.cpu.itb.writeMisses                          0                       # DTB write misses
system.cpu.itb.inserts                              0                       # Number of times an entry is inserted into the TLB
system.cpu.itb.flushTlb                             0                       # Number of times complete TLB was flushed
system.cpu.itb.flushTlbMva                          0                       # Number of times TLB was flushed by MVA
system.cpu.itb.flushTlbMvaAsid                      0                       # Number of times TLB was flushed by MVA & ASID
system.cpu.itb.flushTlbAsid                         0                       # Number of times TLB was flushed by ASID
system.cpu.itb.flushedEntries                       0                       # Number of entries that have been flushed from TLB
system.cpu.itb.alignFaults                          0                       # Number of TLB faults due to alignment restrictions
system.cpu.itb.prefetchFaults                       0                       # Number of TLB faults due to prefetch
system.cpu.itb.domainFaults                         0                       # Number of TLB faults due to domain restrictions
system.cpu.itb.permsFaults                          0                       # Number of TLB faults due to permissions restrictions
system.cpu.itb.readAccesses                         0                       # DTB read accesses
system.cpu.itb.writeAccesses                        0                       # DTB write accesses
system.cpu.itb.instAccesses                         0                       # ITB inst accesses
system.cpu.itb.hits                                 0                       # Total TLB (inst and data) hits
system.cpu.itb.misses                               0                       # Total TLB (inst and data) misses
system.cpu.itb.accesses                             0                       # Total TLB (inst and data) accesses
system.cpu.itb.stage2_mmu.stage2_tlb.instHits            0                       # ITB inst hits
system.cpu.itb.stage2_mmu.stage2_tlb.instMisses            0                       # ITB inst misses
system.cpu.itb.stage2_mmu.stage2_tlb.readHits            0                       # DTB read hits
system.cpu.itb.stage2_mmu.stage2_tlb.readMisses            0                       # DTB read misses
system.cpu.itb.stage2_mmu.stage2_tlb.writeHits            0                       # DTB write hits
system.cpu.itb.stage2_mmu.stage2_tlb.writeMisses            0                       # DTB write misses
system.cpu.itb.stage2_mmu.stage2_tlb.inserts            0                       # Number of times an entry is inserted into the TLB
system.cpu.itb.stage2_mmu.stage2_tlb.flushTlb            0                       # Number of times complete TLB was flushed
system.cpu.itb.stage2_mmu.stage2_tlb.flushTlbMva            0                       # Number of times TLB was flushed by MVA
system.cpu.itb.stage2_mmu.stage2_tlb.flushTlbMvaAsid            0                       # Number of times TLB was flushed by MVA & ASID
system.cpu.itb.stage2_mmu.stage2_tlb.flushTlbAsid            0                       # Number of times TLB was flushed by ASID
system.cpu.itb.stage2_mmu.stage2_tlb.flushedEntries            0                       # Number of entries that have been flushed from TLB
system.cpu.itb.stage2_mmu.stage2_tlb.alignFaults            0                       # Number of TLB faults due to alignment restrictions
system.cpu.itb.stage2_mmu.stage2_tlb.prefetchFaults            0                       # Number of TLB faults due to prefetch
system.cpu.itb.stage2_mmu.stage2_tlb.domainFaults            0                       # Number of TLB faults due to domain restrictions
system.cpu.itb.stage2_mmu.stage2_tlb.permsFaults            0                       # Number of TLB faults due to permissions restrictions
system.cpu.itb.stage2_mmu.stage2_tlb.readAccesses            0                       # DTB read accesses
system.cpu.itb.stage2_mmu.stage2_tlb.writeAccesses            0                       # DTB write accesses
system.cpu.itb.stage2_mmu.stage2_tlb.instAccesses            0                       # ITB inst accesses
system.cpu.itb.stage2_mmu.stage2_tlb.hits            0                       # Total TLB (inst and data) hits
system.cpu.itb.stage2_mmu.stage2_tlb.misses            0                       # Total TLB (inst and data) misses
system.cpu.itb.stage2_mmu.stage2_tlb.accesses            0                       # Total TLB (inst and data) accesses
system.cpu.itb.stage2_mmu.stage2_tlb.walker.walks            0                       # Table walker walks requested
system.cpu.itb.stage2_mmu.stage2_tlb.walker.requestOrigin_Requested::Data            0                       # Table walker requests started/completed, data/inst
system.cpu.itb.stage2_mmu.stage2_tlb.walker.requestOrigin_Requested::Inst            0                       # Table walker requests started/completed, data/inst
system.cpu.itb.stage2_mmu.stage2_tlb.walker.requestOrigin_Requested::total            0                       # Table walker requests started/completed, data/inst
system.cpu.itb.stage2_mmu.stage2_tlb.walker.requestOrigin_Completed::Data            0                       # Table walker requests started/completed, data/inst
system.cpu.itb.stage2_mmu.stage2_tlb.walker.requestOrigin_Completed::Inst            0                       # Table walker requests started/completed, data/inst
system.cpu.itb.stage2_mmu.stage2_tlb.walker.requestOrigin_Completed::total            0                       # Table walker requests started/completed, data/inst
system.cpu.itb.stage2_mmu.stage2_tlb.walker.requestOrigin::total            0                       # Table walker requests started/completed, data/inst
system.cpu.itb.stage2_mmu.stage2_tlb.walker.power_state.pwrStateResidencyTicks::UNDEFINED  82382750500                       # Cumulative time (in ticks) in various power states
system.cpu.itb.walker.walks                         0                       # Table walker walks requested
system.cpu.itb.walker.requestOrigin_Requested::Data            0                       # Table walker requests started/completed, data/inst
system.cpu.itb.walker.requestOrigin_Requested::Inst            0                       # Table walker requests started/completed, data/inst
system.cpu.itb.walker.requestOrigin_Requested::total            0                       # Table walker requests started/completed, data/inst
system.cpu.itb.walker.requestOrigin_Completed::Data            0                       # Table walker requests started/completed, data/inst
system.cpu.itb.walker.requestOrigin_Completed::Inst            0                       # Table walker requests started/completed, data/inst
system.cpu.itb.walker.requestOrigin_Completed::total            0                       # Table walker requests started/completed, data/inst
system.cpu.itb.walker.requestOrigin::total            0                       # Table walker requests started/completed, data/inst
system.cpu.itb.walker.power_state.pwrStateResidencyTicks::UNDEFINED  82382750500                       # Cumulative time (in ticks) in various power states
system.cpu.power_state.pwrStateResidencyTicks::ON  82382750500                       # Cumulative time (in ticks) in various power states
system.cpu.thread_0.numInsts                100000000                       # Number of Instructions committed
system.cpu.thread_0.numOps                  100245691                       # Number of Ops committed
system.cpu.thread_0.numMemRefs                      0                       # Number of Memory References
system.cpu_clk_domain.clock                       500                       # Clock period in ticks
system.cpu_voltage_domain.voltage                   1                       # Voltage in Volts
system.l2.demand_hits::.cpu.inst                   52                       # number of demand (read+write) hits
system.l2.demand_hits::.cpu.data               371891                       # number of demand (read+write) hits
system.l2.demand_hits::total                   371943                       # number of demand (read+write) hits
system.l2.overall_hits::.cpu.inst                  52                       # number of overall hits
system.l2.overall_hits::.cpu.data              371891                       # number of overall hits
system.l2.overall_hits::total                  371943                       # number of overall hits
system.l2.demand_misses::.cpu.inst                819                       # number of demand (read+write) misses
system.l2.demand_misses::.cpu.data             209464                       # number of demand (read+write) misses
system.l2.demand_misses::total                 210283                       # number of demand (read+write) misses
system.l2.overall_misses::.cpu.inst               819                       # number of overall misses
system.l2.overall_misses::.cpu.data            209464                       # number of overall misses
system.l2.overall_misses::total                210283                       # number of overall misses
system.l2.demand_miss_latency::.cpu.inst     63936500                       # number of demand (read+write) miss cycles
system.l2.demand_miss_latency::.cpu.data  17696714500                       # number of demand (read+write) miss cycles
system.l2.demand_miss_latency::total      17760651000                       # number of demand (read+write) miss cycles
system.l2.overall_miss_latency::.cpu.inst     63936500                       # number of overall miss cycles
system.l2.overall_miss_latency::.cpu.data  17696714500                       # number of overall miss cycles
system.l2.overall_miss_latency::total     17760651000                       # number of overall miss cycles
system.l2.demand_accesses::.cpu.inst              871                       # number of demand (read+write) accesses
system.l2.demand_accesses::.cpu.data           581355                       # number of demand (read+write) accesses
system.l2.demand_accesses::total               582226                       # number of demand (read+write) accesses
system.l2.overall_accesses::.cpu.inst             871                       # number of overall (read+write) accesses
system.l2.overall_accesses::.cpu.data          581355                       # number of overall (read+write) accesses
system.l2.overall_accesses::total              582226                       # number of overall (read+write) accesses
system.l2.demand_miss_rate::.cpu.inst        0.940299                       # miss rate for demand accesses
system.l2.demand_miss_rate::.cpu.data        0.360303                       # miss rate for demand accesses
system.l2.demand_miss_rate::total            0.361171                       # miss rate for demand accesses
system.l2.overall_miss_rate::.cpu.inst       0.940299                       # miss rate for overall accesses
system.l2.overall_miss_rate::.cpu.data       0.360303                       # miss rate for overall accesses
system.l2.overall_miss_rate::total           0.361171                       # miss rate for overall accesses
system.l2.demand_avg_miss_latency::.cpu.inst 78066.544567                       # average overall miss latency
system.l2.demand_avg_miss_latency::.cpu.data 84485.708761                       # average overall miss latency
system.l2.demand_avg_miss_latency::total 84460.707713                       # average overall miss latency
system.l2.overall_avg_miss_latency::.cpu.inst 78066.544567                       # average overall miss latency
system.l2.overall_avg_miss_latency::.cpu.data 84485.708761                       # average overall miss latency
system.l2.overall_avg_miss_latency::total 84460.707713                       # average overall miss latency
system.l2.blocked_cycles::no_mshrs                  0                       # number of cycles access was blocked
system.l2.blocked_cycles::no_targets                0                       # number of cycles access was blocked
system.l2.blocked::no_mshrs                         0                       # number of cycles access was blocked
system.l2.blocked::no_targets                       0                       # number of cycles access was blocked
system.l2.avg_blocked_cycles::no_mshrs            nan                       # average number of cycles each access was blocked
system.l2.avg_blocked_cycles::no_targets          nan                       # average number of cycles each access was blocked
system.l2.writebacks::.writebacks              118915                       # number of writebacks
system.l2.writebacks::total                    118915                       # number of writebacks
system.l2.demand_mshr_hits::.cpu.data               2                       # number of demand (read+write) MSHR hits
system.l2.demand_mshr_hits::total                   2                       # number of demand (read+write) MSHR hits
system.l2.overall_mshr_hits::.cpu.data              2                       # number of overall MSHR hits
system.l2.overall_mshr_hits::total                  2                       # number of overall MSHR hits
system.l2.demand_mshr_misses::.cpu.inst           819                       # number of demand (read+write) MSHR misses
system.l2.demand_mshr_misses::.cpu.data        209462                       # number of demand (read+write) MSHR misses
system.l2.demand_mshr_misses::total            210281                       # number of demand (read+write) MSHR misses
system.l2.overall_mshr_misses::.cpu.inst          819                       # number of overall MSHR misses
system.l2.overall_mshr_misses::.cpu.data       209462                       # number of overall MSHR misses
system.l2.overall_mshr_misses::total           210281                       # number of overall MSHR misses
system.l2.demand_mshr_miss_latency::.cpu.inst     55746500                       # number of demand (read+write) MSHR miss cycles
system.l2.demand_mshr_miss_latency::.cpu.data  15601963000                       # number of demand (read+write) MSHR miss cycles
system.l2.demand_mshr_miss_latency::total  15657709500                       # number of demand (read+write) MSHR miss cycles
system.l2.overall_mshr_miss_latency::.cpu.inst     55746500                       # number of overall MSHR miss cycles
system.l2.overall_mshr_miss_latency::.cpu.data  15601963000                       # number of overall MSHR miss cycles
system.l2.overall_mshr_miss_latency::total  15657709500                       # number of overall MSHR miss cycles
system.l2.demand_mshr_miss_rate::.cpu.inst     0.940299                       # mshr miss rate for demand accesses
system.l2.demand_mshr_miss_rate::.cpu.data     0.360300                       # mshr miss rate for demand accesses
system.l2.demand_mshr_miss_rate::total       0.361167                       # mshr miss rate for demand accesses
system.l2.overall_mshr_miss_rate::.cpu.inst     0.940299                       # mshr miss rate for overall accesses
system.l2.overall_mshr_miss_rate::.cpu.data     0.360300                       # mshr miss rate for overall accesses
system.l2.overall_mshr_miss_rate::total      0.361167                       # mshr miss rate for overall accesses
system.l2.demand_avg_mshr_miss_latency::.cpu.inst 68066.544567                       # average overall mshr miss latency
system.l2.demand_avg_mshr_miss_latency::.cpu.data 74485.887655                       # average overall mshr miss latency
system.l2.demand_avg_mshr_miss_latency::total 74460.885672                       # average overall mshr miss latency
system.l2.overall_avg_mshr_miss_latency::.cpu.inst 68066.544567                       # average overall mshr miss latency
system.l2.overall_avg_mshr_miss_latency::.cpu.data 74485.887655                       # average overall mshr miss latency
system.l2.overall_avg_mshr_miss_latency::total 74460.885672                       # average overall mshr miss latency
system.l2.replacements                         177777                       # number of replacements
system.l2.WritebackDirty_hits::.writebacks       483273                       # number of WritebackDirty hits
system.l2.WritebackDirty_hits::total           483273                       # number of WritebackDirty hits
system.l2.WritebackDirty_accesses::.writebacks       483273                       # number of WritebackDirty accesses(hits+misses)
system.l2.WritebackDirty_accesses::total       483273                       # number of WritebackDirty accesses(hits+misses)
system.l2.WritebackClean_hits::.writebacks          398                       # number of WritebackClean hits
system.l2.WritebackClean_hits::total              398                       # number of WritebackClean hits
system.l2.WritebackClean_accesses::.writebacks          398                       # number of WritebackClean accesses(hits+misses)
system.l2.WritebackClean_accesses::total          398                       # number of WritebackClean accesses(hits+misses)
system.l2.ReadExReq_hits::.cpu.data            115849                       # number of ReadExReq hits
system.l2.ReadExReq_hits::total                115849                       # number of ReadExReq hits
system.l2.ReadExReq_misses::.cpu.data          141522                       # number of ReadExReq misses
system.l2.ReadExReq_misses::total              141522                       # number of ReadExReq misses
system.l2.ReadExReq_miss_latency::.cpu.data  12341825000                       # number of ReadExReq miss cycles
system.l2.ReadExReq_miss_latency::total   12341825000                       # number of ReadExReq miss cycles
system.l2.ReadExReq_accesses::.cpu.data        257371                       # number of ReadExReq accesses(hits+misses)
system.l2.ReadExReq_accesses::total            257371                       # number of ReadExReq accesses(hits+misses)
system.l2.ReadExReq_miss_rate::.cpu.data     0.549875                       # miss rate for ReadExReq accesses
system.l2.ReadExReq_miss_rate::total         0.549875                       # miss rate for ReadExReq accesses
system.l2.ReadExReq_avg_miss_latency::.cpu.data 87207.819279                       # average ReadExReq miss latency
system.l2.ReadExReq_avg_miss_latency::total 87207.819279                       # average ReadExReq miss latency
system.l2.ReadExReq_mshr_misses::.cpu.data       141522                       # number of ReadExReq MSHR misses
system.l2.ReadExReq_mshr_misses::total         141522                       # number of ReadExReq MSHR misses
system.l2.ReadExReq_mshr_miss_latency::.cpu.data  10926605000                       # number of ReadExReq MSHR miss cycles
system.l2.ReadExReq_mshr_miss_latency::total  10926605000                       # number of ReadExReq MSHR miss cycles
system.l2.ReadExReq_mshr_miss_rate::.cpu.data     0.549875                       # mshr miss rate for ReadExReq accesses
system.l2.ReadExReq_mshr_miss_rate::total     0.549875                       # mshr miss rate for ReadExReq accesses
system.l2.ReadExReq_avg_mshr_miss_latency::.cpu.data 77207.819279                       # average ReadExReq mshr miss latency
system.l2.ReadExReq_avg_mshr_miss_latency::total 77207.819279                       # average ReadExReq mshr miss latency
system.l2.ReadCleanReq_hits::.cpu.inst             52                       # number of ReadCleanReq hits
system.l2.ReadCleanReq_hits::total                 52                       # number of ReadCleanReq hits
system.l2.ReadCleanReq_misses::.cpu.inst          819                       # number of ReadCleanReq misses
system.l2.ReadCleanReq_misses::total              819                       # number of ReadCleanReq misses
system.l2.ReadCleanReq_miss_latency::.cpu.inst     63936500                       # number of ReadCleanReq miss cycles
system.l2.ReadCleanReq_miss_latency::total     63936500                       # number of ReadCleanReq miss cycles
system.l2.ReadCleanReq_accesses::.cpu.inst          871                       # number of ReadCleanReq accesses(hits+misses)
system.l2.ReadCleanReq_accesses::total            871                       # number of ReadCleanReq accesses(hits+misses)
system.l2.ReadCleanReq_miss_rate::.cpu.inst     0.940299                       # miss rate for ReadCleanReq accesses
system.l2.ReadCleanReq_miss_rate::total      0.940299                       # miss rate for ReadCleanReq accesses
system.l2.ReadCleanReq_avg_miss_latency::.cpu.inst 78066.544567                       # average ReadCleanReq miss latency
system.l2.ReadCleanReq_avg_miss_latency::total 78066.544567                       # average ReadCleanReq miss latency
system.l2.ReadCleanReq_mshr_misses::.cpu.inst          819                       # number of ReadCleanReq MSHR misses
system.l2.ReadCleanReq_mshr_misses::total          819                       # number of ReadCleanReq MSHR misses
system.l2.ReadCleanReq_mshr_miss_latency::.cpu.inst     55746500                       # number of ReadCleanReq MSHR miss cycles
system.l2.ReadCleanReq_mshr_miss_latency::total     55746500                       # number of ReadCleanReq MSHR miss cycles
system.l2.ReadCleanReq_mshr_miss_rate::.cpu.inst     0.940299                       # mshr miss rate for ReadCleanReq accesses
system.l2.ReadCleanReq_mshr_miss_rate::total     0.940299                       # mshr miss rate for ReadCleanReq accesses
system.l2.ReadCleanReq_avg_mshr_miss_latency::.cpu.inst 68066.544567                       # average ReadCleanReq mshr miss latency
system.l2.ReadCleanReq_avg_mshr_miss_latency::total 68066.544567                       # average ReadCleanReq mshr miss latency
system.l2.ReadSharedReq_hits::.cpu.data        256042                       # number of ReadSharedReq hits
system.l2.ReadSharedReq_hits::total            256042                       # number of ReadSharedReq hits
system.l2.ReadSharedReq_misses::.cpu.data        67942                       # number of ReadSharedReq misses
system.l2.ReadSharedReq_misses::total           67942                       # number of ReadSharedReq misses
system.l2.ReadSharedReq_miss_latency::.cpu.data   5354889500                       # number of ReadSharedReq miss cycles
system.l2.ReadSharedReq_miss_latency::total   5354889500                       # number of ReadSharedReq miss cycles
system.l2.ReadSharedReq_accesses::.cpu.data       323984                       # number of ReadSharedReq accesses(hits+misses)
system.l2.ReadSharedReq_accesses::total        323984                       # number of ReadSharedReq accesses(hits+misses)
system.l2.ReadSharedReq_miss_rate::.cpu.data     0.209708                       # miss rate for ReadSharedReq accesses
system.l2.ReadSharedReq_miss_rate::total     0.209708                       # miss rate for ReadSharedReq accesses
system.l2.ReadSharedReq_avg_miss_latency::.cpu.data 78815.600071                       # average ReadSharedReq miss latency
system.l2.ReadSharedReq_avg_miss_latency::total 78815.600071                       # average ReadSharedReq miss latency
system.l2.ReadSharedReq_mshr_hits::.cpu.data            2                       # number of ReadSharedReq MSHR hits
system.l2.ReadSharedReq_mshr_hits::total            2                       # number of ReadSharedReq MSHR hits
system.l2.ReadSharedReq_mshr_misses::.cpu.data        67940                       # number of ReadSharedReq MSHR misses
system.l2.ReadSharedReq_mshr_misses::total        67940                       # number of ReadSharedReq MSHR misses
system.l2.ReadSharedReq_mshr_miss_latency::.cpu.data   4675358000                       # number of ReadSharedReq MSHR miss cycles
system.l2.ReadSharedReq_mshr_miss_latency::total   4675358000                       # number of ReadSharedReq MSHR miss cycles
system.l2.ReadSharedReq_mshr_miss_rate::.cpu.data     0.209702                       # mshr miss rate for ReadSharedReq accesses
system.l2.ReadSharedReq_mshr_miss_rate::total     0.209702                       # mshr miss rate for ReadSharedReq accesses
system.l2.ReadSharedReq_avg_mshr_miss_latency::.cpu.data 68815.984692                       # average ReadSharedReq mshr miss latency
system.l2.ReadSharedReq_avg_mshr_miss_latency::total 68815.984692                       # average ReadSharedReq mshr miss latency
system.l2.power_state.pwrStateResidencyTicks::UNDEFINED  82382750500                       # Cumulative time (in ticks) in various power states
system.l2.tags.tagsinuse                 31904.375925                       # Cycle average of tags in use
system.l2.tags.total_refs                     1161916                       # Total number of references to valid blocks.
system.l2.tags.sampled_refs                    210545                       # Sample count of references to valid blocks.
system.l2.tags.avg_refs                      5.518611                       # Average number of references to valid blocks.
system.l2.tags.warmup_cycle                     77000                       # Cycle when the warmup percentage was hit.
system.l2.tags.occ_blocks::.writebacks      80.050519                       # Average occupied blocks per requestor
system.l2.tags.occ_blocks::.cpu.inst       121.756399                       # Average occupied blocks per requestor
system.l2.tags.occ_blocks::.cpu.data     31702.569008                       # Average occupied blocks per requestor
system.l2.tags.occ_percent::.writebacks      0.002443                       # Average percentage of cache occupancy
system.l2.tags.occ_percent::.cpu.inst        0.003716                       # Average percentage of cache occupancy
system.l2.tags.occ_percent::.cpu.data        0.967486                       # Average percentage of cache occupancy
system.l2.tags.occ_percent::total            0.973644                       # Average percentage of cache occupancy
system.l2.tags.occ_task_id_blocks::1024         32768                       # Occupied blocks per task id
system.l2.tags.age_task_id_blocks_1024::0           35                       # Occupied blocks per task id
system.l2.tags.age_task_id_blocks_1024::1           32                       # Occupied blocks per task id
system.l2.tags.age_task_id_blocks_1024::2          448                       # Occupied blocks per task id
system.l2.tags.age_task_id_blocks_1024::3         7420                       # Occupied blocks per task id
system.l2.tags.age_task_id_blocks_1024::4        24833                       # Occupied blocks per task id
system.l2.tags.occ_task_id_percent::1024            1                       # Percentage of cache occupancy per task id
system.l2.tags.tag_accesses                   9505889                       # Number of tag accesses
system.l2.tags.data_accesses                  9505889                       # Number of data accesses
system.l2.tags.power_state.pwrStateResidencyTicks::UNDEFINED  82382750500                       # Cumulative time (in ticks) in various power states
system.mem_ctrls.avgPriority_.writebacks::samples    118915.00                       # Average QoS priority value for accepted requests
system.mem_ctrls.avgPriority_.cpu.inst::samples       819.00                       # Average QoS priority value for accepted requests
system.mem_ctrls.avgPriority_.cpu.data::samples    209404.00                       # Average QoS priority value for accepted requests
system.mem_ctrls.priorityMinLatency      0.000000018750                       # per QoS priority minimum request to response latency (s)
system.mem_ctrls.priorityMaxLatency      0.002576382500                       # per QoS priority maximum request to response latency (s)
system.mem_ctrls.numReadWriteTurnArounds         7120                       # Number of turnarounds from READ to WRITE
system.mem_ctrls.numWriteReadTurnArounds         7120                       # Number of turnarounds from WRITE to READ
system.mem_ctrls.numStayReadState              549566                       # Number of times bus staying in READ state
system.mem_ctrls.numStayWriteState             111921                       # Number of times bus staying in WRITE state
system.mem_ctrls.readReqs                      210281                       # Number of read requests accepted
system.mem_ctrls.writeReqs                     118915                       # Number of write requests accepted
system.mem_ctrls.readBursts                    210281                       # Number of controller read bursts, including those serviced by the write queue
system.mem_ctrls.writeBursts                   118915                       # Number of controller write bursts, including those merged in the write queue
system.mem_ctrls.servicedByWrQ                     58                       # Number of controller read bursts serviced by the write queue
system.mem_ctrls.mergedWrBursts                     0                       # Number of controller write bursts merged with an existing one
system.mem_ctrls.neitherReadNorWriteReqs            0                       # Number of requests that are neither read nor write
system.mem_ctrls.avgRdQLen                       1.08                       # Average read queue length when enqueuing
system.mem_ctrls.avgWrQLen                      24.93                       # Average write queue length when enqueuing
system.mem_ctrls.numRdRetry                         0                       # Number of times read queue was full causing retry
system.mem_ctrls.numWrRetry                         0                       # Number of times write queue was full causing retry
system.mem_ctrls.readPktSize::0                     0                       # Read request sizes (log2)
system.mem_ctrls.readPktSize::1                     0                       # Read request sizes (log2)
system.mem_ctrls.readPktSize::2                     0                       # Read request sizes (log2)
system.mem_ctrls.readPktSize::3                     0                       # Read request sizes (log2)
system.mem_ctrls.readPktSize::4                     0                       # Read request sizes (log2)
system.mem_ctrls.readPktSize::5                     0                       # Read request sizes (log2)
system.mem_ctrls.readPktSize::6                210281                       # Read request sizes (log2)
system.mem_ctrls.writePktSize::0                    0                       # Write request sizes (log2)
[...]
system.mem_ctrls.dram.bw_write::.writebacks     92380504                       # Write bandwidth from this memory (bytes/s)
system.mem_ctrls.dram.bw_write::total        92380504                       # Write bandwidth from this memory (bytes/s)
system.mem_ctrls.dram.bw_total::.writebacks     92380504                       # Total bandwidth to/from this memory (bytes/s)
system.mem_ctrls.dram.bw_total::.cpu.inst       636250                       # Total bandwidth to/from this memory (bytes/s)
system.mem_ctrls.dram.bw_total::.cpu.data    162722996                       # Total bandwidth to/from this memory (bytes/s)
system.mem_ctrls.dram.bw_total::total       255739750                       # Total bandwidth to/from this memory (bytes/s)
system.mem_ctrls.dram.readBursts               210223                       # Number of DRAM read bursts
system.mem_ctrls.dram.writeBursts              118885                       # Number of DRAM write bursts
system.mem_ctrls.dram.perBankRdBursts::0        13166                       # Per bank write bursts
system.mem_ctrls.dram.perBankRdBursts::1        13320                       # Per bank write bursts
system.mem_ctrls.dram.perBankRdBursts::2        13563                       # Per bank write bursts
system.mem_ctrls.dram.perBankRdBursts::3        13531                       # Per bank write bursts
system.mem_ctrls.dram.perBankRdBursts::4        13271                       # Per bank write bursts
system.mem_ctrls.dram.perBankRdBursts::5        13230                       # Per bank write bursts
system.mem_ctrls.dram.perBankRdBursts::6        13354                       # Per bank write bursts
system.mem_ctrls.dram.perBankRdBursts::7        13112                       # Per bank write bursts
system.mem_ctrls.dram.perBankRdBursts::8        13178                       # Per bank write bursts
system.mem_ctrls.dram.perBankRdBursts::9        13017                       # Per bank write bursts
system.mem_ctrls.dram.perBankRdBursts::10        12996                       # Per bank write bursts
system.mem_ctrls.dram.perBankRdBursts::11        12883                       # Per bank write bursts
system.mem_ctrls.dram.perBankRdBursts::12        13025                       # Per bank write bursts
system.mem_ctrls.dram.perBankRdBursts::13        13065                       # Per bank write bursts
system.mem_ctrls.dram.perBankRdBursts::14        12628                       # Per bank write bursts
system.mem_ctrls.dram.perBankRdBursts::15        12884                       # Per bank write bursts
system.mem_ctrls.dram.perBankWrBursts::0         7338                       # Per bank write bursts
system.mem_ctrls.dram.perBankWrBursts::1         7497                       # Per bank write bursts
system.mem_ctrls.dram.perBankWrBursts::2         7607                       # Per bank write bursts
system.mem_ctrls.dram.perBankWrBursts::3         7618                       # Per bank write bursts
system.mem_ctrls.dram.perBankWrBursts::4         7445                       # Per bank write bursts
system.mem_ctrls.dram.perBankWrBursts::5         7455                       # Per bank write bursts
system.mem_ctrls.dram.perBankWrBursts::6         7619                       # Per bank write bursts
system.mem_ctrls.dram.perBankWrBursts::7         7454                       # Per bank write bursts
system.mem_ctrls.dram.perBankWrBursts::8         7503                       # Per bank write bursts
system.mem_ctrls.dram.perBankWrBursts::9         7441                       # Per bank write bursts
system.mem_ctrls.dram.perBankWrBursts::10         7533                       # Per bank write bursts
system.mem_ctrls.dram.perBankWrBursts::11         7458                       # Per bank write bursts
system.mem_ctrls.dram.perBankWrBursts::12         7392                       # Per bank write bursts
system.mem_ctrls.dram.perBankWrBursts::13         7355                       # Per bank write bursts
system.mem_ctrls.dram.perBankWrBursts::14         6975                       # Per bank write bursts
system.mem_ctrls.dram.perBankWrBursts::15         7195                       # Per bank write bursts
system.mem_ctrls.dram.totQLat              3057467000                       # Total ticks spent queuing
system.mem_ctrls.dram.totBusLat            1051115000                       # Total ticks spent in databus transfers
system.mem_ctrls.dram.totMemAccLat         6999148250                       # Total ticks spent from burst creation until serviced by the DRAM
system.mem_ctrls.dram.avgQLat                14543.92                       # Average queueing delay per DRAM burst
system.mem_ctrls.dram.avgBusLat               5000.00                       # Average bus latency per DRAM burst
system.mem_ctrls.dram.avgMemAccLat           33293.92                       # Average memory access latency per DRAM burst
system.mem_ctrls.dram.readRowHits              142072                       # Number of row buffer hits during reads
system.mem_ctrls.dram.writeRowHits              71578                       # Number of row buffer hits during writes
system.mem_ctrls.dram.readRowHitRate            67.58                       # Row buffer hit rate for reads
system.mem_ctrls.dram.writeRowHitRate           60.21                       # Row buffer hit rate for writes
system.mem_ctrls.dram.bytesPerActivate::samples       115446                       # Bytes accessed per row activation
system.mem_ctrls.dram.bytesPerActivate::mean   182.440414                       # Bytes accessed per row activation
system.mem_ctrls.dram.bytesPerActivate::gmean   107.623952                       # Bytes accessed per row activation
system.mem_ctrls.dram.bytesPerActivate::stdev   250.568269                       # Bytes accessed per row activation
system.mem_ctrls.dram.bytesPerActivate::0-127        77744     67.34%     67.34% # Bytes accessed per row activation
system.mem_ctrls.dram.bytesPerActivate::128-255        16584     14.37%     81.71% # Bytes accessed per row activation
system.mem_ctrls.dram.bytesPerActivate::256-383         2537      2.20%     83.91% # Bytes accessed per row activation
system.mem_ctrls.dram.bytesPerActivate::384-511         1617      1.40%     85.31% # Bytes accessed per row activation
system.mem_ctrls.dram.bytesPerActivate::512-639         8741      7.57%     92.88% # Bytes accessed per row activation
system.mem_ctrls.dram.bytesPerActivate::640-767          646      0.56%     93.44% # Bytes accessed per row activation
system.mem_ctrls.dram.bytesPerActivate::768-895         1109      0.96%     94.40% # Bytes accessed per row activation
system.mem_ctrls.dram.bytesPerActivate::896-1023          833      0.72%     95.12% # Bytes accessed per row activation
system.mem_ctrls.dram.bytesPerActivate::1024-1151         5635      4.88%    100.00% # Bytes accessed per row activation
system.mem_ctrls.dram.bytesPerActivate::total       115446                       # Bytes accessed per row activation
system.mem_ctrls.dram.bytesRead              13454272                       # Total number of bytes read from DRAM
system.mem_ctrls.dram.bytesWritten            7608640                       # Total number of bytes written to DRAM
system.mem_ctrls.dram.avgRdBW              163.314188                       # Average DRAM read bandwidth in MiBytes/s
system.mem_ctrls.dram.avgWrBW               92.357198                       # Average DRAM write bandwidth in MiBytes/s
system.mem_ctrls.dram.peakBW                 12800.00                       # Theoretical peak bandwidth in MiByte/s
system.mem_ctrls.dram.busUtil                    2.00                       # Data bus utilization in percentage
system.mem_ctrls.dram.busUtilRead                1.28                       # Data bus utilization in percentage for reads
system.mem_ctrls.dram.busUtilWrite               0.72                       # Data bus utilization in percentage for writes
system.mem_ctrls.dram.pageHitRate               64.92                       # Row buffer hit rate, read and write combined
system.mem_ctrls.dram.power_state.pwrStateResidencyTicks::UNDEFINED  82382750500                       # Cumulative time (in ticks) in various power states
system.mem_ctrls.dram.rank0.actEnergy       414055740                       # Energy for activate commands per rank (pJ)
system.mem_ctrls.dram.rank0.preEnergy       220049280                       # Energy for precharge commands per rank (pJ)
system.mem_ctrls.dram.rank0.readEnergy      760745580                       # Energy for read commands per rank (pJ)
system.mem_ctrls.dram.rank0.writeEnergy     313372260                       # Energy for write commands per rank (pJ)
system.mem_ctrls.dram.rank0.refreshEnergy 6502891200.000001                       # Energy for refresh commands per rank (pJ)
system.mem_ctrls.dram.rank0.actBackEnergy  20971764330                       # Energy for active background per rank (pJ)
system.mem_ctrls.dram.rank0.preBackEnergy  13974543360                       # Energy for precharge background per rank (pJ)
system.mem_ctrls.dram.rank0.actPowerDownEnergy            0                       # Energy for active power-down per rank (pJ)
system.mem_ctrls.dram.rank0.prePowerDownEnergy            0                       # Energy for precharge power-down per rank (pJ)
system.mem_ctrls.dram.rank0.selfRefreshEnergy            0                       # Energy for self refresh per rank (pJ)
system.mem_ctrls.dram.rank0.totalEnergy   43157421750                       # Total energy per rank (pJ)
system.mem_ctrls.dram.rank0.averagePower   523.864783                       # Core power per rank (mW)
system.mem_ctrls.dram.rank0.totalIdleTime            0                       # Total Idle time Per DRAM Rank
system.mem_ctrls.dram.rank0.pwrStateTime::IDLE  36111529250                       # Time in different power states
system.mem_ctrls.dram.rank0.pwrStateTime::REF   2750800000                       # Time in different power states
system.mem_ctrls.dram.rank0.pwrStateTime::SREF            0                       # Time in different power states
system.mem_ctrls.dram.rank0.pwrStateTime::PRE_PDN            0                       # Time in different power states
system.mem_ctrls.dram.rank0.pwrStateTime::ACT  43520421250                       # Time in different power states
system.mem_ctrls.dram.rank0.pwrStateTime::ACT_PDN            0                       # Time in different power states
system.mem_ctrls.dram.rank1.actEnergy       410314380                       # Energy for activate commands per rank (pJ)
system.mem_ctrls.dram.rank1.preEnergy       218068290                       # Energy for precharge commands per rank (pJ)
system.mem_ctrls.dram.rank1.readEnergy      740246640                       # Energy for read commands per rank (pJ)
system.mem_ctrls.dram.rank1.writeEnergy     307207440                       # Energy for write commands per rank (pJ)
system.mem_ctrls.dram.rank1.refreshEnergy 6502891200.000001                       # Energy for refresh commands per rank (pJ)
system.mem_ctrls.dram.rank1.actBackEnergy  20108916000                       # Energy for active background per rank (pJ)
system.mem_ctrls.dram.rank1.preBackEnergy  14701152480                       # Energy for precharge background per rank (pJ)
system.mem_ctrls.dram.rank1.actPowerDownEnergy            0                       # Energy for active power-down per rank (pJ)
system.mem_ctrls.dram.rank1.prePowerDownEnergy            0                       # Energy for precharge power-down per rank (pJ)
system.mem_ctrls.dram.rank1.selfRefreshEnergy            0                       # Energy for self refresh per rank (pJ)
system.mem_ctrls.dram.rank1.totalEnergy   42988796430                       # Total energy per rank (pJ)
system.mem_ctrls.dram.rank1.averagePower   521.817931                       # Core power per rank (mW)
system.mem_ctrls.dram.rank1.totalIdleTime            0                       # Total Idle time Per DRAM Rank
system.mem_ctrls.dram.rank1.pwrStateTime::IDLE  38009654750                       # Time in different power states
system.mem_ctrls.dram.rank1.pwrStateTime::REF   2750800000                       # Time in different power states
system.mem_ctrls.dram.rank1.pwrStateTime::SREF            0                       # Time in different power states
system.mem_ctrls.dram.rank1.pwrStateTime::PRE_PDN            0                       # Time in different power states
system.mem_ctrls.dram.rank1.pwrStateTime::ACT  41622295750                       # Time in different power states
system.mem_ctrls.dram.rank1.pwrStateTime::ACT_PDN            0                       # Time in different power states
system.mem_ctrls.power_state.pwrStateResidencyTicks::UNDEFINED  82382750500                       # Cumulative time (in ticks) in various power states
system.membus.trans_dist::ReadResp              68759                       # Transaction distribution
system.membus.trans_dist::WritebackDirty       118915                       # Transaction distribution
system.membus.trans_dist::CleanEvict            58218                       # Transaction distribution
system.membus.trans_dist::ReadExReq            141522                       # Transaction distribution
system.membus.trans_dist::ReadExResp           141522                       # Transaction distribution
system.membus.trans_dist::ReadSharedReq         68759                       # Transaction distribution
system.membus.pkt_count_system.l2.mem_side_port::system.mem_ctrls.port       597695                       # Packet count per connected requestor and responder (bytes)
system.membus.pkt_count::total                 597695                       # Packet count per connected requestor and responder (bytes)
system.membus.pkt_size_system.l2.mem_side_port::system.mem_ctrls.port     21068544                       # Cumulative packet size per connected requestor and responder (bytes)
system.membus.pkt_size::total                21068544                       # Cumulative packet size per connected requestor and responder (bytes)
system.membus.snoops                                0                       # Total snoops (count)
system.membus.snoopTraffic                          0                       # Total snoop traffic (bytes)
system.membus.snoop_fanout::samples            210281                       # Request fanout histogram
system.membus.snoop_fanout::mean                    0                       # Request fanout histogram
system.membus.snoop_fanout::stdev                   0                       # Request fanout histogram
system.membus.snoop_fanout::underflows              0      0.00%      0.00% # Request fanout histogram
system.membus.snoop_fanout::0                  210281    100.00%    100.00% # Request fanout histogram
system.membus.snoop_fanout::1                       0      0.00%    100.00% # Request fanout histogram
system.membus.snoop_fanout::overflows               0      0.00%    100.00% # Request fanout histogram
system.membus.snoop_fanout::min_value               0                       # Request fanout histogram
system.membus.snoop_fanout::max_value               0                       # Request fanout histogram
system.membus.snoop_fanout::total              210281                       # Request fanout histogram
system.membus.power_state.pwrStateResidencyTicks::UNDEFINED  82382750500                       # Cumulative time (in ticks) in various power states
system.membus.reqLayer0.occupancy           895350000                       # Layer occupancy (ticks)
system.membus.reqLayer0.utilization               1.1                       # Layer utilization (%)
system.membus.respLayer1.occupancy         1134121250                       # Layer occupancy (ticks)
system.membus.respLayer1.utilization              1.4                       # Layer utilization (%)
system.tol2bus.trans_dist::ReadResp            324855                       # Transaction distribution
system.tol2bus.trans_dist::WritebackDirty       602188                       # Transaction distribution
system.tol2bus.trans_dist::WritebackClean          411                       # Transaction distribution
system.tol2bus.trans_dist::CleanEvict          154895                       # Transaction distribution
system.tol2bus.trans_dist::ReadExReq           257371                       # Transaction distribution
system.tol2bus.trans_dist::ReadExResp          257371                       # Transaction distribution
system.tol2bus.trans_dist::ReadCleanReq           871                       # Transaction distribution
system.tol2bus.trans_dist::ReadSharedReq       323984                       # Transaction distribution
system.tol2bus.pkt_count_system.cpu.icache.mem_side_port::system.l2.cpu_side_port         2153                       # Packet count per connected requestor and responder (bytes)
system.tol2bus.pkt_count_system.cpu.dcache.mem_side_port::system.l2.cpu_side_port      1742016                       # Packet count per connected requestor and responder (bytes)
system.tol2bus.pkt_count::total               1744169                       # Packet count per connected requestor and responder (bytes)
system.tol2bus.pkt_size_system.cpu.icache.mem_side_port::system.l2.cpu_side_port        82048                       # Cumulative packet size per connected requestor and responder (bytes)
system.tol2bus.pkt_size_system.cpu.dcache.mem_side_port::system.l2.cpu_side_port     68136192                       # Cumulative packet size per connected requestor and responder (bytes)
system.tol2bus.pkt_size::total               68218240                       # Cumulative packet size per connected requestor and responder (bytes)
system.tol2bus.snoops                          177777                       # Total snoops (count)
system.tol2bus.snoopTraffic                   7610560                       # Total snoop traffic (bytes)
system.tol2bus.snoop_fanout::samples           760003                       # Request fanout histogram
system.tol2bus.snoop_fanout::mean            0.000880                       # Request fanout histogram
system.tol2bus.snoop_fanout::stdev           0.029656                       # Request fanout histogram
system.tol2bus.snoop_fanout::underflows             0      0.00%      0.00% # Request fanout histogram
system.tol2bus.snoop_fanout::0                 759334     99.91%     99.91% # Request fanout histogram
system.tol2bus.snoop_fanout::1                    669      0.09%    100.00% # Request fanout histogram
system.tol2bus.snoop_fanout::2                      0      0.00%    100.00% # Request fanout histogram
system.tol2bus.snoop_fanout::overflows              0      0.00%    100.00% # Request fanout histogram
system.tol2bus.snoop_fanout::min_value              0                       # Request fanout histogram
system.tol2bus.snoop_fanout::max_value              1                       # Request fanout histogram
system.tol2bus.snoop_fanout::total             760003                       # Request fanout histogram
system.tol2bus.power_state.pwrStateResidencyTicks::UNDEFINED  82382750500                       # Cumulative time (in ticks) in various power states
system.tol2bus.reqLayer0.occupancy         1064655500                       # Layer occupancy (ticks)
system.tol2bus.reqLayer0.utilization              1.3                       # Layer utilization (%)
system.tol2bus.respLayer0.occupancy           1306500                       # Layer occupancy (ticks)
system.tol2bus.respLayer0.utilization             0.0                       # Layer utilization (%)
system.tol2bus.respLayer1.occupancy         872033498                       # Layer occupancy (ticks)
system.tol2bus.respLayer1.utilization             1.1                       # Layer utilization (%)
system.voltage_domain.voltage                       1                       # Voltage in Volts

---------- End Simulation Statistics   ----------
