
---------- Begin Simulation Statistics ----------
final_tick                                   24483000                       # Number of ticks from beginning of simulation (restored from checkpoints and never reset)
host_inst_rate                                  29839                       # Simulator instruction rate (inst/s)
host_mem_usage                                2232812                       # Number of bytes of host memory used
host_op_rate                                    34510                       # Simulator op (including micro ops) rate (op/s)
host_seconds                                     0.17                       # Real time elapsed on the host
host_tick_rate                              141683718                       # Simulator tick rate (ticks/s)
sim_freq                                 1000000000000                       # Frequency of simulated ticks
sim_insts                                        5149                       # Number of instructions simulated
sim_ops                                          5961                       # Number of ops (including micro ops) simulated
sim_seconds                                  0.000024                       # Number of seconds simulated
sim_ticks                                    24483000                       # Number of ticks simulated
system.cpu_cluster.cpus.committedInsts           5149                       # Number of instructions committed
system.cpu_cluster.cpus.committedOps             5961                       # Number of ops (including micro ops) committed
system.cpu_cluster.cpus.cpi                 19.019615                       # CPI: cycles per instruction
system.cpu_cluster.cpus.discardedOps             1370                       # Number of ops (including micro ops) which were discarded before commit
system.cpu_cluster.cpus.idleCycles              87051                       # Total number of cycles that the object has spent stopped
system.cpu_cluster.cpus.ipc                  0.052577                       # IPC: instructions per cycle
system.cpu_cluster.cpus.numCycles               97932                       # number of cpu cycles simulated
system.cpu_cluster.cpus.numFetchSuspends            0                       # Number of times Execute suspended instruction fetching
system.cpu_cluster.cpus.numWorkItemsCompleted            0                       # number of work items this cpu completed
system.cpu_cluster.cpus.numWorkItemsStarted            0                       # number of work items this cpu started
system.cpu_cluster.cpus.op_class_0::No_OpClass            0      0.00%      0.00% # Class of committed instruction
system.cpu_cluster.cpus.op_class_0::IntAlu         3896     65.36%     65.36% # Class of committed instruction
system.cpu_cluster.cpus.op_class_0::IntMult            4      0.07%     65.43% # Class of committed instruction
system.cpu_cluster.cpus.op_class_0::IntDiv            0      0.00%     65.43% # Class of committed instruction
system.cpu_cluster.cpus.op_class_0::FloatAdd            0      0.00%     65.43% # Class of committed instruction
system.cpu_cluster.cpus.op_class_0::FloatCmp            0      0.00%     65.43% # Class of committed instruction
system.cpu_cluster.cpus.op_class_0::FloatCvt            0      0.00%     65.43% # Class of committed instruction
system.cpu_cluster.cpus.op_class_0::FloatMult            0      0.00%     65.43% # Class of committed instruction
system.cpu_cluster.cpus.op_class_0::FloatMultAcc            0      0.00%     65.43% # Class of committed instruction
system.cpu_cluster.cpus.op_class_0::FloatDiv            0      0.00%     65.43% # Class of committed instruction
system.cpu_cluster.cpus.op_class_0::FloatMisc            0      0.00%     65.43% # Class of committed instruction
system.cpu_cluster.cpus.op_class_0::FloatSqrt            0      0.00%     65.43% # Class of committed instruction
system.cpu_cluster.cpus.op_class_0::SimdAdd            0      0.00%     65.43% # Class of committed instruction
system.cpu_cluster.cpus.op_class_0::SimdAddAcc            0      0.00%     65.43% # Class of committed instruction
system.cpu_cluster.cpus.op_class_0::SimdAlu            0      0.00%     65.43% # Class of committed instruction
system.cpu_cluster.cpus.op_class_0::SimdCmp            0      0.00%     65.43% # Class of committed instruction
system.cpu_cluster.cpus.op_class_0::SimdCvt            0      0.00%     65.43% # Class of committed instruction
system.cpu_cluster.cpus.op_class_0::SimdMisc            0      0.00%     65.43% # Class of committed instruction
system.cpu_cluster.cpus.op_class_0::SimdMult            0      0.00%     65.43% # Class of committed instruction
system.cpu_cluster.cpus.op_class_0::SimdMultAcc            0      0.00%     65.43% # Class of committed instruction
system.cpu_cluster.cpus.op_class_0::SimdShift            0      0.00%     65.43% # Class of committed instruction
system.cpu_cluster.cpus.op_class_0::SimdShiftAcc            0      0.00%     65.43% # Class of committed instruction
system.cpu_cluster.cpus.op_class_0::SimdDiv            0      0.00%     65.43% # Class of committed instruction
system.cpu_cluster.cpus.op_class_0::SimdSqrt            0      0.00%     65.43% # Class of committed instruction
system.cpu_cluster.cpus.op_class_0::SimdFloatAdd            0      0.00%     65.43% # Class of committed instruction
system.cpu_cluster.cpus.op_class_0::SimdFloatAlu            0      0.00%     65.43% # Class of committed instruction
system.cpu_cluster.cpus.op_class_0::SimdFloatCmp            0      0.00%     65.43% # Class of committed instruction
system.cpu_cluster.cpus.op_class_0::SimdFloatCvt            0      0.00%     65.43% # Class of committed instruction
system.cpu_cluster.cpus.op_class_0::SimdFloatDiv            0      0.00%     65.43% # Class of committed instruction
system.cpu_cluster.cpus.op_class_0::SimdFloatMisc            3      0.05%     65.48% # Class of committed instruction
system.cpu_cluster.cpus.op_class_0::SimdFloatMult            0      0.00%     65.48% # Class of committed instruction
system.cpu_cluster.cpus.op_class_0::SimdFloatMultAcc            0      0.00%     65.48% # Class of committed instruction
system.cpu_cluster.cpus.op_class_0::SimdFloatSqrt            0      0.00%     65.48% # Class of committed instruction
system.cpu_cluster.cpus.op_class_0::SimdReduceAdd            0      0.00%     65.48% # Class of committed instruction
system.cpu_cluster.cpus.op_class_0::SimdReduceAlu            0      0.00%     65.48% # Class of committed instruction
system.cpu_cluster.cpus.op_class_0::SimdReduceCmp            0      0.00%     65.48% # Class of committed instruction
system.cpu_cluster.cpus.op_class_0::SimdFloatReduceAdd            0      0.00%     65.48% # Class of committed instruction
system.cpu_cluster.cpus.op_class_0::SimdFloatReduceCmp            0      0.00%     65.48% # Class of committed instruction
system.cpu_cluster.cpus.op_class_0::SimdAes            0      0.00%     65.48% # Class of committed instruction
system.cpu_cluster.cpus.op_class_0::SimdAesMix            0      0.00%     65.48% # Class of committed instruction
system.cpu_cluster.cpus.op_class_0::SimdSha1Hash            0      0.00%     65.48% # Class of committed instruction
system.cpu_cluster.cpus.op_class_0::SimdSha1Hash2            0      0.00%     65.48% # Class of committed instruction
system.cpu_cluster.cpus.op_class_0::SimdSha256Hash            0      0.00%     65.48% # Class of committed instruction
system.cpu_cluster.cpus.op_class_0::SimdSha256Hash2            0      0.00%     65.48% # Class of committed instruction
system.cpu_cluster.cpus.op_class_0::SimdShaSigma2            0      0.00%     65.48% # Class of committed instruction
system.cpu_cluster.cpus.op_class_0::SimdShaSigma3            0      0.00%     65.48% # Class of committed instruction
system.cpu_cluster.cpus.op_class_0::SimdPredAlu            0      0.00%     65.48% # Class of committed instruction
system.cpu_cluster.cpus.op_class_0::MemRead         1101     18.47%     83.95% # Class of committed instruction
system.cpu_cluster.cpus.op_class_0::MemWrite          957     16.05%    100.00% # Class of committed instruction
system.cpu_cluster.cpus.op_class_0::FloatMemRead            0      0.00%    100.00% # Class of committed instruction
system.cpu_cluster.cpus.op_class_0::FloatMemWrite            0      0.00%    100.00% # Class of committed instruction
system.cpu_cluster.cpus.op_class_0::IprAccess            0      0.00%    100.00% # Class of committed instruction
system.cpu_cluster.cpus.op_class_0::InstPrefetch            0      0.00%    100.00% # Class of committed instruction
system.cpu_cluster.cpus.op_class_0::total         5961                       # Class of committed instruction
system.cpu_cluster.cpus.tickCycles              10881                       # Number of cycles that the object actually ticked
system.cpu_cluster.cpus.workload.numSyscalls           13                       # Number of system calls
system.cpu_cluster.toL2Bus.snoop_filter.hit_multi_requests            5                       # Number of requests hitting in the snoop filter with multiple (>1) holders of the requested data.
system.cpu_cluster.toL2Bus.snoop_filter.hit_multi_snoops            0                       # Number of snoops hitting in the snoop filter with multiple (>1) holders of the requested data.
system.cpu_cluster.toL2Bus.snoop_filter.hit_single_requests           61                       # Number of requests hitting in the snoop filter with a single holder of the requested data.
system.cpu_cluster.toL2Bus.snoop_filter.hit_single_snoops            0                       # Number of snoops hitting in the snoop filter with a single holder of the requested data.
system.cpu_cluster.toL2Bus.snoop_filter.tot_requests          498                       # Total number of requests made to the snoop filter.
system.cpu_cluster.toL2Bus.snoop_filter.tot_snoops            0                       # Total number of snoops made to the snoop filter.
system.membus.snoop_filter.hit_multi_requests            0                       # Number of requests hitting in the snoop filter with multiple (>1) holders of the requested data.
system.membus.snoop_filter.hit_multi_snoops            0                       # Number of snoops hitting in the snoop filter with multiple (>1) holders of the requested data.
system.membus.snoop_filter.hit_single_requests           39                       # Number of requests hitting in the snoop filter with a single holder of the requested data.
system.membus.snoop_filter.hit_single_snoops            0                       # Number of snoops hitting in the snoop filter with a single holder of the requested data.
system.membus.snoop_filter.tot_requests           471                       # Total number of requests made to the snoop filter.
system.membus.snoop_filter.tot_snoops               0                       # Total number of snoops made to the snoop filter.
system.clk_domain.clock                          1000                       # Clock period in ticks
system.cpu_cluster.clk_domain.clock               250                       # Clock period in ticks
system.cpu_cluster.cpus.branchPred.lookups         2353                       # Number of BP lookups
system.cpu_cluster.cpus.branchPred.condPredicted         1430                       # Number of conditional branches predicted
system.cpu_cluster.cpus.branchPred.condIncorrect          391                       # Number of conditional branches incorrect
system.cpu_cluster.cpus.branchPred.BTBLookups         1174                       # Number of BTB lookups
system.cpu_cluster.cpus.branchPred.BTBHits          406                       # Number of BTB hits
system.cpu_cluster.cpus.branchPred.BTBHitPct    34.582624                       # BTB Hit Percentage
system.cpu_cluster.cpus.branchPred.RASUsed          225                       # Number of times the RAS was used to get a target.
system.cpu_cluster.cpus.branchPred.RASIncorrect           14                       # Number of incorrect RAS predictions.
system.cpu_cluster.cpus.branchPred.indirectLookups          130                       # Number of indirect predictor lookups.
system.cpu_cluster.cpus.branchPred.indirectHits            6                       # Number of indirect target hits.
system.cpu_cluster.cpus.branchPred.indirectMisses          124                       # Number of indirect misses.
system.cpu_cluster.cpus.branchPred.indirectMispredicted           59                       # Number of mispredicted indirect branches.
system.cpu_cluster.cpus.dcache.demand_hits::.cpu_cluster.cpus.data         2015                       # number of demand (read+write) hits
system.cpu_cluster.cpus.dcache.demand_hits::total         2015                       # number of demand (read+write) hits
system.cpu_cluster.cpus.dcache.overall_hits::.cpu_cluster.cpus.data         2015                       # number of overall hits
system.cpu_cluster.cpus.dcache.overall_hits::total         2015                       # number of overall hits
system.cpu_cluster.cpus.dcache.demand_misses::.cpu_cluster.cpus.data          179                       # number of demand (read+write) misses
system.cpu_cluster.cpus.dcache.demand_misses::total          179                       # number of demand (read+write) misses
system.cpu_cluster.cpus.dcache.overall_misses::.cpu_cluster.cpus.data          179                       # number of overall misses
system.cpu_cluster.cpus.dcache.overall_misses::total          179                       # number of overall misses
system.cpu_cluster.cpus.dcache.demand_miss_latency::.cpu_cluster.cpus.data     10728000                       # number of demand (read+write) miss cycles
system.cpu_cluster.cpus.dcache.demand_miss_latency::total     10728000                       # number of demand (read+write) miss cycles
system.cpu_cluster.cpus.dcache.overall_miss_latency::.cpu_cluster.cpus.data     10728000                       # number of overall miss cycles
system.cpu_cluster.cpus.dcache.overall_miss_latency::total     10728000                       # number of overall miss cycles
system.cpu_cluster.cpus.dcache.demand_accesses::.cpu_cluster.cpus.data         2194                       # number of demand (read+write) accesses
system.cpu_cluster.cpus.dcache.demand_accesses::total         2194                       # number of demand (read+write) accesses
system.cpu_cluster.cpus.dcache.overall_accesses::.cpu_cluster.cpus.data         2194                       # number of overall (read+write) accesses
system.cpu_cluster.cpus.dcache.overall_accesses::total         2194                       # number of overall (read+write) accesses
system.cpu_cluster.cpus.dcache.demand_miss_rate::.cpu_cluster.cpus.data     0.081586                       # miss rate for demand accesses
system.cpu_cluster.cpus.dcache.demand_miss_rate::total     0.081586                       # miss rate for demand accesses
system.cpu_cluster.cpus.dcache.overall_miss_rate::.cpu_cluster.cpus.data     0.081586                       # miss rate for overall accesses
system.cpu_cluster.cpus.dcache.overall_miss_rate::total     0.081586                       # miss rate for overall accesses
system.cpu_cluster.cpus.dcache.demand_avg_miss_latency::.cpu_cluster.cpus.data 59932.960894                       # average overall miss latency
system.cpu_cluster.cpus.dcache.demand_avg_miss_latency::total 59932.960894                       # average overall miss latency
system.cpu_cluster.cpus.dcache.overall_avg_miss_latency::.cpu_cluster.cpus.data 59932.960894                       # average overall miss latency
system.cpu_cluster.cpus.dcache.overall_avg_miss_latency::total 59932.960894                       # average overall miss latency
system.cpu_cluster.cpus.dcache.blocked_cycles::no_mshrs            0                       # number of cycles access was blocked
system.cpu_cluster.cpus.dcache.blocked_cycles::no_targets            0                       # number of cycles access was blocked
system.cpu_cluster.cpus.dcache.blocked::no_mshrs            0                       # number of cycles access was blocked
system.cpu_cluster.cpus.dcache.blocked::no_targets            0                       # number of cycles access was blocked
system.cpu_cluster.cpus.dcache.avg_blocked_cycles::no_mshrs          nan                       # average number of cycles each access was blocked
system.cpu_cluster.cpus.dcache.avg_blocked_cycles::no_targets          nan                       # average number of cycles each access was blocked
system.cpu_cluster.cpus.dcache.demand_mshr_hits::.cpu_cluster.cpus.data           31                       # number of demand (read+write) MSHR hits
system.cpu_cluster.cpus.dcache.demand_mshr_hits::total           31                       # number of demand (read+write) MSHR hits
system.cpu_cluster.cpus.dcache.overall_mshr_hits::.cpu_cluster.cpus.data           31                       # number of overall MSHR hits
system.cpu_cluster.cpus.dcache.overall_mshr_hits::total           31                       # number of overall MSHR hits
system.cpu_cluster.cpus.dcache.demand_mshr_misses::.cpu_cluster.cpus.data          148                       # number of demand (read+write) MSHR misses
system.cpu_cluster.cpus.dcache.demand_mshr_misses::total          148                       # number of demand (read+write) MSHR misses
system.cpu_cluster.cpus.dcache.overall_mshr_misses::.cpu_cluster.cpus.data          148                       # number of overall MSHR misses
system.cpu_cluster.cpus.dcache.overall_mshr_misses::total          148                       # number of overall MSHR misses
system.cpu_cluster.cpus.dcache.demand_mshr_miss_latency::.cpu_cluster.cpus.data      8962500                       # number of demand (read+write) MSHR miss cycles
system.cpu_cluster.cpus.dcache.demand_mshr_miss_latency::total      8962500                       # number of demand (read+write) MSHR miss cycles
system.cpu_cluster.cpus.dcache.overall_mshr_miss_latency::.cpu_cluster.cpus.data      8962500                       # number of overall MSHR miss cycles
system.cpu_cluster.cpus.dcache.overall_mshr_miss_latency::total      8962500                       # number of overall MSHR miss cycles
system.cpu_cluster.cpus.dcache.demand_mshr_miss_rate::.cpu_cluster.cpus.data     0.067457                       # mshr miss rate for demand accesses
system.cpu_cluster.cpus.dcache.demand_mshr_miss_rate::total     0.067457                       # mshr miss rate for demand accesses
system.cpu_cluster.cpus.dcache.overall_mshr_miss_rate::.cpu_cluster.cpus.data     0.067457                       # mshr miss rate for overall accesses
system.cpu_cluster.cpus.dcache.overall_mshr_miss_rate::total     0.067457                       # mshr miss rate for overall accesses
system.cpu_cluster.cpus.dcache.demand_avg_mshr_miss_latency::.cpu_cluster.cpus.data 60557.432432                       # average overall mshr miss latency
system.cpu_cluster.cpus.dcache.demand_avg_mshr_miss_latency::total 60557.432432                       # average overall mshr miss latency
system.cpu_cluster.cpus.dcache.overall_avg_mshr_miss_latency::.cpu_cluster.cpus.data 60557.432432                       # average overall mshr miss latency
system.cpu_cluster.cpus.dcache.overall_avg_mshr_miss_latency::total 60557.432432                       # average overall mshr miss latency
system.cpu_cluster.cpus.dcache.replacements            3                       # number of replacements
system.cpu_cluster.cpus.dcache.ReadReq_hits::.cpu_cluster.cpus.data         1153                       # number of ReadReq hits
system.cpu_cluster.cpus.dcache.ReadReq_hits::total         1153                       # number of ReadReq hits
system.cpu_cluster.cpus.dcache.ReadReq_misses::.cpu_cluster.cpus.data          112                       # number of ReadReq misses
system.cpu_cluster.cpus.dcache.ReadReq_misses::total          112                       # number of ReadReq misses
system.cpu_cluster.cpus.dcache.ReadReq_miss_latency::.cpu_cluster.cpus.data      6826250                       # number of ReadReq miss cycles
system.cpu_cluster.cpus.dcache.ReadReq_miss_latency::total      6826250                       # number of ReadReq miss cycles
system.cpu_cluster.cpus.dcache.ReadReq_accesses::.cpu_cluster.cpus.data         1265                       # number of ReadReq accesses(hits+misses)
system.cpu_cluster.cpus.dcache.ReadReq_accesses::total         1265                       # number of ReadReq accesses(hits+misses)
system.cpu_cluster.cpus.dcache.ReadReq_miss_rate::.cpu_cluster.cpus.data     0.088538                       # miss rate for ReadReq accesses
system.cpu_cluster.cpus.dcache.ReadReq_miss_rate::total     0.088538                       # miss rate for ReadReq accesses
system.cpu_cluster.cpus.dcache.ReadReq_avg_miss_latency::.cpu_cluster.cpus.data 60948.660714                       # average ReadReq miss latency
system.cpu_cluster.cpus.dcache.ReadReq_avg_miss_latency::total 60948.660714                       # average ReadReq miss latency
system.cpu_cluster.cpus.dcache.ReadReq_mshr_hits::.cpu_cluster.cpus.data            6                       # number of ReadReq MSHR hits
system.cpu_cluster.cpus.dcache.ReadReq_mshr_hits::total            6                       # number of ReadReq MSHR hits
system.cpu_cluster.cpus.dcache.ReadReq_mshr_misses::.cpu_cluster.cpus.data          106                       # number of ReadReq MSHR misses
system.cpu_cluster.cpus.dcache.ReadReq_mshr_misses::total          106                       # number of ReadReq MSHR misses
system.cpu_cluster.cpus.dcache.ReadReq_mshr_miss_latency::.cpu_cluster.cpus.data      6519500                       # number of ReadReq MSHR miss cycles
system.cpu_cluster.cpus.dcache.ReadReq_mshr_miss_latency::total      6519500                       # number of ReadReq MSHR miss cycles
system.cpu_cluster.cpus.dcache.ReadReq_mshr_miss_rate::.cpu_cluster.cpus.data     0.083794                       # mshr miss rate for ReadReq accesses
system.cpu_cluster.cpus.dcache.ReadReq_mshr_miss_rate::total     0.083794                       # mshr miss rate for ReadReq accesses
system.cpu_cluster.cpus.dcache.ReadReq_avg_mshr_miss_latency::.cpu_cluster.cpus.data 61504.716981                       # average ReadReq mshr miss latency
system.cpu_cluster.cpus.dcache.ReadReq_avg_mshr_miss_latency::total 61504.716981                       # average ReadReq mshr miss latency
system.cpu_cluster.cpus.dcache.WriteReq_hits::.cpu_cluster.cpus.data          862                       # number of WriteReq hits
system.cpu_cluster.cpus.dcache.WriteReq_hits::total          862                       # number of WriteReq hits
system.cpu_cluster.cpus.dcache.WriteReq_misses::.cpu_cluster.cpus.data           67                       # number of WriteReq misses
system.cpu_cluster.cpus.dcache.WriteReq_misses::total           67                       # number of WriteReq misses
system.cpu_cluster.cpus.dcache.WriteReq_miss_latency::.cpu_cluster.cpus.data      3901750                       # number of WriteReq miss cycles
system.cpu_cluster.cpus.dcache.WriteReq_miss_latency::total      3901750                       # number of WriteReq miss cycles
system.cpu_cluster.cpus.dcache.WriteReq_accesses::.cpu_cluster.cpus.data          929                       # number of WriteReq accesses(hits+misses)
system.cpu_cluster.cpus.dcache.WriteReq_accesses::total          929                       # number of WriteReq accesses(hits+misses)
system.cpu_cluster.cpus.dcache.WriteReq_miss_rate::.cpu_cluster.cpus.data     0.072121                       # miss rate for WriteReq accesses
system.cpu_cluster.cpus.dcache.WriteReq_miss_rate::total     0.072121                       # miss rate for WriteReq accesses
system.cpu_cluster.cpus.dcache.WriteReq_avg_miss_latency::.cpu_cluster.cpus.data 58235.074627                       # average WriteReq miss latency
system.cpu_cluster.cpus.dcache.WriteReq_avg_miss_latency::total 58235.074627                       # average WriteReq miss latency
system.cpu_cluster.cpus.dcache.WriteReq_mshr_hits::.cpu_cluster.cpus.data           25                       # number of WriteReq MSHR hits
system.cpu_cluster.cpus.dcache.WriteReq_mshr_hits::total           25                       # number of WriteReq MSHR hits
system.cpu_cluster.cpus.dcache.WriteReq_mshr_misses::.cpu_cluster.cpus.data           42                       # number of WriteReq MSHR misses
system.cpu_cluster.cpus.dcache.WriteReq_mshr_misses::total           42                       # number of WriteReq MSHR misses
system.cpu_cluster.cpus.dcache.WriteReq_mshr_miss_latency::.cpu_cluster.cpus.data      2443000                       # number of WriteReq MSHR miss cycles
system.cpu_cluster.cpus.dcache.WriteReq_mshr_miss_latency::total      2443000                       # number of WriteReq MSHR miss cycles
system.cpu_cluster.cpus.dcache.WriteReq_mshr_miss_rate::.cpu_cluster.cpus.data     0.045210                       # mshr miss rate for WriteReq accesses
system.cpu_cluster.cpus.dcache.WriteReq_mshr_miss_rate::total     0.045210                       # mshr miss rate for WriteReq accesses
system.cpu_cluster.cpus.dcache.WriteReq_avg_mshr_miss_latency::.cpu_cluster.cpus.data 58166.666667                       # average WriteReq mshr miss latency
system.cpu_cluster.cpus.dcache.WriteReq_avg_mshr_miss_latency::total 58166.666667                       # average WriteReq mshr miss latency
system.cpu_cluster.cpus.dcache.LoadLockedReq_hits::.cpu_cluster.cpus.data           11                       # number of LoadLockedReq hits
system.cpu_cluster.cpus.dcache.LoadLockedReq_hits::total           11                       # number of LoadLockedReq hits
system.cpu_cluster.cpus.dcache.LoadLockedReq_accesses::.cpu_cluster.cpus.data           11                       # number of LoadLockedReq accesses(hits+misses)
system.cpu_cluster.cpus.dcache.LoadLockedReq_accesses::total           11                       # number of LoadLockedReq accesses(hits+misses)
system.cpu_cluster.cpus.dcache.StoreCondReq_hits::.cpu_cluster.cpus.data           11                       # number of StoreCondReq hits
system.cpu_cluster.cpus.dcache.StoreCondReq_hits::total           11                       # number of StoreCondReq hits
system.cpu_cluster.cpus.dcache.StoreCondReq_accesses::.cpu_cluster.cpus.data           11                       # number of StoreCondReq accesses(hits+misses)
system.cpu_cluster.cpus.dcache.StoreCondReq_accesses::total           11                       # number of StoreCondReq accesses(hits+misses)
system.cpu_cluster.cpus.dcache.power_state.pwrStateResidencyTicks::UNDEFINED     24483000                       # Cumulative time (in ticks) in various power states
system.cpu_cluster.cpus.dcache.tags.tagsinuse    87.098509                       # Cycle average of tags in use
system.cpu_cluster.cpus.dcache.tags.total_refs         2185                       # Total number of references to valid blocks.
system.cpu_cluster.cpus.dcache.tags.sampled_refs          148                       # Sample count of references to valid blocks.
system.cpu_cluster.cpus.dcache.tags.avg_refs    14.763514                       # Average number of references to valid blocks.
system.cpu_cluster.cpus.dcache.tags.warmup_cycle       134500                       # Cycle when the warmup percentage was hit.
system.cpu_cluster.cpus.dcache.tags.occ_blocks::.cpu_cluster.cpus.data    87.098509                       # Average occupied blocks per requestor
system.cpu_cluster.cpus.dcache.tags.occ_percent::.cpu_cluster.cpus.data     0.170114                       # Average percentage of cache occupancy
system.cpu_cluster.cpus.dcache.tags.occ_percent::total     0.170114                       # Average percentage of cache occupancy
system.cpu_cluster.cpus.dcache.tags.occ_task_id_blocks::1024          145                       # Occupied blocks per task id
system.cpu_cluster.cpus.dcache.tags.age_task_id_blocks_1024::0           43                       # Occupied blocks per task id
system.cpu_cluster.cpus.dcache.tags.age_task_id_blocks_1024::1          102                       # Occupied blocks per task id
system.cpu_cluster.cpus.dcache.tags.occ_task_id_percent::1024     0.283203                       # Percentage of cache occupancy per task id
system.cpu_cluster.cpus.dcache.tags.tag_accesses         4580                       # Number of tag accesses
system.cpu_cluster.cpus.dcache.tags.data_accesses         4580                       # Number of data accesses
system.cpu_cluster.cpus.dcache.tags.power_state.pwrStateResidencyTicks::UNDEFINED     24483000                       # Cumulative time (in ticks) in various power states
system.cpu_cluster.cpus.dtb.instHits                0                       # ITB inst hits
system.cpu_cluster.cpus.dtb.instMisses              0                       # ITB inst misses
system.cpu_cluster.cpus.dtb.readHits                0                       # DTB read hits
system.cpu_cluster.cpus.dtb.readMisses              0                       # DTB read misses
system.cpu_cluster.cpus.dtb.writeHits               0                       # DTB write hits
system.cpu_cluster.cpus.dtb.writeMisses             0                       # DTB write misses
system.cpu_cluster.cpus.dtb.inserts                 0                       # Number of times an entry is inserted into the TLB
system.cpu_cluster.cpus.dtb.flushTlb                0                       # Number of times complete TLB was flushed
system.cpu_cluster.cpus.dtb.flushTlbMva             0                       # Number of times TLB was flushed by MVA
system.cpu_cluster.cpus.dtb.flushTlbMvaAsid            0                       # Number of times TLB was flushed by MVA & ASID
system.cpu_cluster.cpus.dtb.flushTlbAsid            0                       # Number of times TLB was flushed by ASID
system.cpu_cluster.cpus.dtb.flushedEntries            0                       # Number of entries that have been flushed from TLB
system.cpu_cluster.cpus.dtb.alignFaults             0                       # Number of TLB faults due to alignment restrictions
system.cpu_cluster.cpus.dtb.prefetchFaults            0                       # Number of TLB faults due to prefetch
system.cpu_cluster.cpus.dtb.domainFaults            0                       # Number of TLB faults due to domain restrictions
system.cpu_cluster.cpus.dtb.permsFaults             0                       # Number of TLB faults due to permissions restrictions
system.cpu_cluster.cpus.dtb.readAccesses            0                       # DTB read accesses
system.cpu_cluster.cpus.dtb.writeAccesses            0                       # DTB write accesses
system.cpu_cluster.cpus.dtb.instAccesses            0                       # ITB inst accesses
system.cpu_cluster.cpus.dtb.hits                    0                       # Total TLB (inst and data) hits
system.cpu_cluster.cpus.dtb.misses                  0                       # Total TLB (inst and data) misses
system.cpu_cluster.cpus.dtb.accesses                0                       # Total TLB (inst and data) accesses
system.cpu_cluster.cpus.dtb.stage2_mmu.stage2_tlb.instHits            0                       # ITB inst hits
system.cpu_cluster.cpus.dtb.stage2_mmu.stage2_tlb.instMisses            0                       # ITB inst misses
system.cpu_cluster.cpus.dtb.stage2_mmu.stage2_tlb.readHits            0                       # DTB read hits
system.cpu_cluster.cpus.dtb.stage2_mmu.stage2_tlb.readMisses            0                       # DTB read misses
system.cpu_cluster.cpus.dtb.stage2_mmu.stage2_tlb.writeHits            0                       # DTB write hits
system.cpu_cluster.cpus.dtb.stage2_mmu.stage2_tlb.writeMisses            0                       # DTB write misses
system.cpu_cluster.cpus.dtb.stage2_mmu.stage2_tlb.inserts            0                       # Number of times an entry is inserted into the TLB
system.cpu_cluster.cpus.dtb.stage2_mmu.stage2_tlb.flushTlb            0                       # Number of times complete TLB was flushed
system.cpu_cluster.cpus.dtb.stage2_mmu.stage2_tlb.flushTlbMva            0                       # Number of times TLB was flushed by MVA
system.cpu_cluster.cpus.dtb.stage2_mmu.stage2_tlb.flushTlbMvaAsid            0                       # Number of times TLB was flushed by MVA & ASID
system.cpu_cluster.cpus.dtb.stage2_mmu.stage2_tlb.flushTlbAsid            0                       # Number of times TLB was flushed by ASID
system.cpu_cluster.cpus.dtb.stage2_mmu.stage2_tlb.flushedEntries            0                       # Number of entries that have been flushed from TLB
system.cpu_cluster.cpus.dtb.stage2_mmu.stage2_tlb.alignFaults            0                       # Number of TLB faults due to alignment restrictions
system.cpu_cluster.cpus.dtb.stage2_mmu.stage2_tlb.prefetchFaults            0                       # Number of TLB faults due to prefetch
system.cpu_cluster.cpus.dtb.stage2_mmu.stage2_tlb.domainFaults            0                       # Number of TLB faults due to domain restrictions
system.cpu_cluster.cpus.dtb.stage2_mmu.stage2_tlb.permsFaults            0                       # Number of TLB faults due to permissions restrictions
system.cpu_cluster.cpus.dtb.stage2_mmu.stage2_tlb.readAccesses            0                       # DTB read accesses
system.cpu_cluster.cpus.dtb.stage2_mmu.stage2_tlb.writeAccesses            0                       # DTB write accesses
system.cpu_cluster.cpus.dtb.stage2_mmu.stage2_tlb.instAccesses            0                       # ITB inst accesses
system.cpu_cluster.cpus.dtb.stage2_mmu.stage2_tlb.hits            0                       # Total TLB (inst and data) hits
system.cpu_cluster.cpus.dtb.stage2_mmu.stage2_tlb.misses            0                       # Total TLB (inst and data) misses
system.cpu_cluster.cpus.dtb.stage2_mmu.stage2_tlb.accesses            0                       # Total TLB (inst and data) accesses
system.cpu_cluster.cpus.dtb.stage2_mmu.stage2_tlb.walker.walks            0                       # Table walker walks requested
system.cpu_cluster.cpus.dtb.stage2_mmu.stage2_tlb.walker.requestOrigin_Requested::Data            0                       # Table walker requests started/completed, data/inst
system.cpu_cluster.cpus.dtb.stage2_mmu.stage2_tlb.walker.requestOrigin_Requested::Inst            0                       # Table walker requests started/completed, data/inst
system.cpu_cluster.cpus.dtb.stage2_mmu.stage2_tlb.walker.requestOrigin_Requested::total            0                       # Table walker requests started/completed, data/inst
system.cpu_cluster.cpus.dtb.stage2_mmu.stage2_tlb.walker.requestOrigin_Completed::Data            0                       # Table walker requests started/completed, data/inst
system.cpu_cluster.cpus.dtb.stage2_mmu.stage2_tlb.walker.requestOrigin_Completed::Inst            0                       # Table walker requests started/completed, data/inst
system.cpu_cluster.cpus.dtb.stage2_mmu.stage2_tlb.walker.requestOrigin_Completed::total            0                       # Table walker requests started/completed, data/inst
system.cpu_cluster.cpus.dtb.stage2_mmu.stage2_tlb.walker.requestOrigin::total            0                       # Table walker requests started/completed, data/inst
system.cpu_cluster.cpus.dtb.stage2_mmu.stage2_tlb.walker.power_state.pwrStateResidencyTicks::UNDEFINED     24483000                       # Cumulative time (in ticks) in various power states
system.cpu_cluster.cpus.dtb.walker.walks            0                       # Table walker walks requested
system.cpu_cluster.cpus.dtb.walker.requestOrigin_Requested::Data            0                       # Table walker requests started/completed, data/inst
system.cpu_cluster.cpus.dtb.walker.requestOrigin_Requested::Inst            0                       # Table walker requests started/completed, data/inst
system.cpu_cluster.cpus.dtb.walker.requestOrigin_Requested::total            0                       # Table walker requests started/completed, data/inst
system.cpu_cluster.cpus.dtb.walker.requestOrigin_Completed::Data            0                       # Table walker requests started/completed, data/inst
system.cpu_cluster.cpus.dtb.walker.requestOrigin_Completed::Inst            0                       # Table walker requests started/completed, data/inst
system.cpu_cluster.cpus.dtb.walker.requestOrigin_Completed::total            0                       # Table walker requests started/completed, data/inst
system.cpu_cluster.cpus.dtb.walker.requestOrigin::total            0                       # Table walker requests started/completed, data/inst
system.cpu_cluster.cpus.dtb.walker.power_state.pwrStateResidencyTicks::UNDEFINED     24483000                       # Cumulative time (in ticks) in various power states
system.cpu_cluster.cpus.dtb_walker_cache.blocked_cycles::no_mshrs            0                       # number of cycles access was blocked
system.cpu_cluster.cpus.dtb_walker_cache.blocked_cycles::no_targets            0                       # number of cycles access was blocked
system.cpu_cluster.cpus.dtb_walker_cache.blocked::no_mshrs            0                       # number of cycles access was blocked
system.cpu_cluster.cpus.dtb_walker_cache.blocked::no_targets            0                       # number of cycles access was blocked
system.cpu_cluster.cpus.dtb_walker_cache.avg_blocked_cycles::no_mshrs          nan                       # average number of cycles each access was blocked
system.cpu_cluster.cpus.dtb_walker_cache.avg_blocked_cycles::no_targets          nan                       # average number of cycles each access was blocked
system.cpu_cluster.cpus.dtb_walker_cache.replacements            0                       # number of replacements
system.cpu_cluster.cpus.dtb_walker_cache.power_state.pwrStateResidencyTicks::UNDEFINED     24483000                       # Cumulative time (in ticks) in various power states
system.cpu_cluster.cpus.dtb_walker_cache.tags.tagsinuse            0                       # Cycle average of tags in use
system.cpu_cluster.cpus.dtb_walker_cache.tags.total_refs            0                       # Total number of references to valid blocks.
system.cpu_cluster.cpus.dtb_walker_cache.tags.sampled_refs            0                       # Sample count of references to valid blocks.
system.cpu_cluster.cpus.dtb_walker_cache.tags.avg_refs          nan                       # Average number of references to valid blocks.
system.cpu_cluster.cpus.dtb_walker_cache.tags.warmup_cycle            0                       # Cycle when the warmup percentage was hit.
system.cpu_cluster.cpus.dtb_walker_cache.tags.tag_accesses            0                       # Number of tag accesses
system.cpu_cluster.cpus.dtb_walker_cache.tags.data_accesses            0                       # Number of data accesses
system.cpu_cluster.cpus.dtb_walker_cache.tags.power_state.pwrStateResidencyTicks::UNDEFINED     24483000                       # Cumulative time (in ticks) in various power states
system.cpu_cluster.cpus.fetch2.intInstructions         5643                       # Number of integer instructions successfully decoded
system.cpu_cluster.cpus.fetch2.fpInstructions            0                       # Number of floating point instructions successfully decoded
system.cpu_cluster.cpus.fetch2.vecInstructions            0                       # Number of SIMD instructions successfully decoded
system.cpu_cluster.cpus.fetch2.loadInstructions         1842                       # Number of memory load instructions successfully decoded
system.cpu_cluster.cpus.fetch2.storeInstructions          829                       # Number of memory store instructions successfully decoded
system.cpu_cluster.cpus.fetch2.amoInstructions            0                       # Number of memory atomic instructions successfully decoded
system.cpu_cluster.cpus.icache.demand_hits::.cpu_cluster.cpus.inst         2506                       # number of demand (read+write) hits
system.cpu_cluster.cpus.icache.demand_hits::total         2506                       # number of demand (read+write) hits
system.cpu_cluster.cpus.icache.overall_hits::.cpu_cluster.cpus.inst         2506                       # number of overall hits
system.cpu_cluster.cpus.icache.overall_hits::total         2506                       # number of overall hits
system.cpu_cluster.cpus.icache.demand_misses::.cpu_cluster.cpus.inst          332                       # number of demand (read+write) misses
system.cpu_cluster.cpus.icache.demand_misses::total          332                       # number of demand (read+write) misses
system.cpu_cluster.cpus.icache.overall_misses::.cpu_cluster.cpus.inst          332                       # number of overall misses
system.cpu_cluster.cpus.icache.overall_misses::total          332                       # number of overall misses
system.cpu_cluster.cpus.icache.demand_miss_latency::.cpu_cluster.cpus.inst     19715000                       # number of demand (read+write) miss cycles
system.cpu_cluster.cpus.icache.demand_miss_latency::total     19715000                       # number of demand (read+write) miss cycles
system.cpu_cluster.cpus.icache.overall_miss_latency::.cpu_cluster.cpus.inst     19715000                       # number of overall miss cycles
system.cpu_cluster.cpus.icache.overall_miss_latency::total     19715000                       # number of overall miss cycles
system.cpu_cluster.cpus.icache.demand_accesses::.cpu_cluster.cpus.inst         2838                       # number of demand (read+write) accesses
system.cpu_cluster.cpus.icache.demand_accesses::total         2838                       # number of demand (read+write) accesses
system.cpu_cluster.cpus.icache.overall_accesses::.cpu_cluster.cpus.inst         2838                       # number of overall (read+write) accesses
system.cpu_cluster.cpus.icache.overall_accesses::total         2838                       # number of overall (read+write) accesses
system.cpu_cluster.cpus.icache.demand_miss_rate::.cpu_cluster.cpus.inst     0.116984                       # miss rate for demand accesses
system.cpu_cluster.cpus.icache.demand_miss_rate::total     0.116984                       # miss rate for demand accesses
system.cpu_cluster.cpus.icache.overall_miss_rate::.cpu_cluster.cpus.inst     0.116984                       # miss rate for overall accesses
system.cpu_cluster.cpus.icache.overall_miss_rate::total     0.116984                       # miss rate for overall accesses
system.cpu_cluster.cpus.icache.demand_avg_miss_latency::.cpu_cluster.cpus.inst 59382.530120                       # average overall miss latency
system.cpu_cluster.cpus.icache.demand_avg_miss_latency::total 59382.530120                       # average overall miss latency
system.cpu_cluster.cpus.icache.overall_avg_miss_latency::.cpu_cluster.cpus.inst 59382.530120                       # average overall miss latency
system.cpu_cluster.cpus.icache.overall_avg_miss_latency::total 59382.530120                       # average overall miss latency
system.cpu_cluster.cpus.icache.blocked_cycles::no_mshrs            0                       # number of cycles access was blocked
system.cpu_cluster.cpus.icache.blocked_cycles::no_targets            0                       # number of cycles access was blocked
system.cpu_cluster.cpus.icache.blocked::no_mshrs            0                       # number of cycles access was blocked
system.cpu_cluster.cpus.icache.blocked::no_targets            0                       # number of cycles access was blocked
system.cpu_cluster.cpus.icache.avg_blocked_cycles::no_mshrs          nan                       # average number of cycles each access was blocked
system.cpu_cluster.cpus.icache.avg_blocked_cycles::no_targets          nan                       # average number of cycles each access was blocked
system.cpu_cluster.cpus.icache.writebacks::.writebacks           15                       # number of writebacks
system.cpu_cluster.cpus.icache.writebacks::total           15                       # number of writebacks
system.cpu_cluster.cpus.icache.demand_mshr_misses::.cpu_cluster.cpus.inst          332                       # number of demand (read+write) MSHR misses
system.cpu_cluster.cpus.icache.demand_mshr_misses::total          332                       # number of demand (read+write) MSHR misses
system.cpu_cluster.cpus.icache.overall_mshr_misses::.cpu_cluster.cpus.inst          332                       # number of overall MSHR misses
system.cpu_cluster.cpus.icache.overall_mshr_misses::total          332                       # number of overall MSHR misses
system.cpu_cluster.cpus.icache.demand_mshr_miss_latency::.cpu_cluster.cpus.inst     19632000                       # number of demand (read+write) MSHR miss cycles
system.cpu_cluster.cpus.icache.demand_mshr_miss_latency::total     19632000                       # number of demand (read+write) MSHR miss cycles
system.cpu_cluster.cpus.icache.overall_mshr_miss_latency::.cpu_cluster.cpus.inst     19632000                       # number of overall MSHR miss cycles
system.cpu_cluster.cpus.icache.overall_mshr_miss_latency::total     19632000                       # number of overall MSHR miss cycles
system.cpu_cluster.cpus.icache.demand_mshr_miss_rate::.cpu_cluster.cpus.inst     0.116984                       # mshr miss rate for demand accesses
system.cpu_cluster.cpus.icache.demand_mshr_miss_rate::total     0.116984                       # mshr miss rate for demand accesses
system.cpu_cluster.cpus.icache.overall_mshr_miss_rate::.cpu_cluster.cpus.inst     0.116984                       # mshr miss rate for overall accesses
system.cpu_cluster.cpus.icache.overall_mshr_miss_rate::total     0.116984                       # mshr miss rate for overall accesses
system.cpu_cluster.cpus.icache.demand_avg_mshr_miss_latency::.cpu_cluster.cpus.inst 59132.530120                       # average overall mshr miss latency
system.cpu_cluster.cpus.icache.demand_avg_mshr_miss_latency::total 59132.530120                       # average overall mshr miss latency
system.cpu_cluster.cpus.icache.overall_avg_mshr_miss_latency::.cpu_cluster.cpus.inst 59132.530120                       # average overall mshr miss latency
system.cpu_cluster.cpus.icache.overall_avg_mshr_miss_latency::total 59132.530120                       # average overall mshr miss latency
system.cpu_cluster.cpus.icache.replacements           15                       # number of replacements
system.cpu_cluster.cpus.icache.ReadReq_hits::.cpu_cluster.cpus.inst         2506                       # number of ReadReq hits
system.cpu_cluster.cpus.icache.ReadReq_hits::total         2506                       # number of ReadReq hits
system.cpu_cluster.cpus.icache.ReadReq_misses::.cpu_cluster.cpus.inst          332                       # number of ReadReq misses
system.cpu_cluster.cpus.icache.ReadReq_misses::total          332                       # number of ReadReq misses
system.cpu_cluster.cpus.icache.ReadReq_miss_latency::.cpu_cluster.cpus.inst     19715000                       # number of ReadReq miss cycles
system.cpu_cluster.cpus.icache.ReadReq_miss_latency::total     19715000                       # number of ReadReq miss cycles
system.cpu_cluster.cpus.icache.ReadReq_accesses::.cpu_cluster.cpus.inst         2838                       # number of ReadReq accesses(hits+misses)
system.cpu_cluster.cpus.icache.ReadReq_accesses::total         2838                       # number of ReadReq accesses(hits+misses)
system.cpu_cluster.cpus.icache.ReadReq_miss_rate::.cpu_cluster.cpus.inst     0.116984                       # miss rate for ReadReq accesses
system.cpu_cluster.cpus.icache.ReadReq_miss_rate::total     0.116984                       # miss rate for ReadReq accesses
system.cpu_cluster.cpus.icache.ReadReq_avg_miss_latency::.cpu_cluster.cpus.inst 59382.530120                       # average ReadReq miss latency
system.cpu_cluster.cpus.icache.ReadReq_avg_miss_latency::total 59382.530120                       # average ReadReq miss latency
system.cpu_cluster.cpus.icache.ReadReq_mshr_misses::.cpu_cluster.cpus.inst          332                       # number of ReadReq MSHR misses
system.cpu_cluster.cpus.icache.ReadReq_mshr_misses::total          332                       # number of ReadReq MSHR misses
system.cpu_cluster.cpus.icache.ReadReq_mshr_miss_latency::.cpu_cluster.cpus.inst     19632000                       # number of ReadReq MSHR miss cycles
system.cpu_cluster.cpus.icache.ReadReq_mshr_miss_latency::total     19632000                       # number of ReadReq MSHR miss cycles
system.cpu_cluster.cpus.icache.ReadReq_mshr_miss_rate::.cpu_cluster.cpus.inst     0.116984                       # mshr miss rate for ReadReq accesses
system.cpu_cluster.cpus.icache.ReadReq_mshr_miss_rate::total     0.116984                       # mshr miss rate for ReadReq accesses
system.cpu_cluster.cpus.icache.ReadReq_avg_mshr_miss_latency::.cpu_cluster.cpus.inst 59132.530120                       # average ReadReq mshr miss latency
system.cpu_cluster.cpus.icache.ReadReq_avg_mshr_miss_latency::total 59132.530120                       # average ReadReq mshr miss latency
system.cpu_cluster.cpus.icache.power_state.pwrStateResidencyTicks::UNDEFINED     24483000                       # Cumulative time (in ticks) in various power states
system.cpu_cluster.cpus.icache.tags.tagsinuse   164.252906                       # Cycle average of tags in use
system.cpu_cluster.cpus.icache.tags.total_refs         2838                       # Total number of references to valid blocks.
system.cpu_cluster.cpus.icache.tags.sampled_refs          332                       # Sample count of references to valid blocks.
system.cpu_cluster.cpus.icache.tags.avg_refs     8.548193                       # Average number of references to valid blocks.
system.cpu_cluster.cpus.icache.tags.warmup_cycle        78500                       # Cycle when the warmup percentage was hit.
system.cpu_cluster.cpus.icache.tags.occ_blocks::.cpu_cluster.cpus.inst   164.252906                       # Average occupied blocks per requestor
system.cpu_cluster.cpus.icache.tags.occ_percent::.cpu_cluster.cpus.inst     0.213871                       # Average percentage of cache occupancy
system.cpu_cluster.cpus.icache.tags.occ_percent::total     0.213871                       # Average percentage of cache occupancy
system.cpu_cluster.cpus.icache.tags.occ_task_id_blocks::1024          317                       # Occupied blocks per task id
system.cpu_cluster.cpus.icache.tags.age_task_id_blocks_1024::0          135                       # Occupied blocks per task id
system.cpu_cluster.cpus.icache.tags.age_task_id_blocks_1024::1          182                       # Occupied blocks per task id
system.cpu_cluster.cpus.icache.tags.occ_task_id_percent::1024     0.412760                       # Percentage of cache occupancy per task id
system.cpu_cluster.cpus.icache.tags.tag_accesses         8846                       # Number of tag accesses
system.cpu_cluster.cpus.icache.tags.data_accesses         8846                       # Number of data accesses
system.cpu_cluster.cpus.icache.tags.power_state.pwrStateResidencyTicks::UNDEFINED     24483000                       # Cumulative time (in ticks) in various power states
system.cpu_cluster.cpus.itb.instHits                0                       # ITB inst hits
system.cpu_cluster.cpus.itb.instMisses              0                       # ITB inst misses
system.cpu_cluster.cpus.itb.readHits                0                       # DTB read hits
system.cpu_cluster.cpus.itb.readMisses              0                       # DTB read misses
system.cpu_cluster.cpus.itb.writeHits               0                       # DTB write hits
system.cpu_cluster.cpus.itb.writeMisses             0                       # DTB write misses
system.cpu_cluster.cpus.itb.inserts                 0                       # Number of times an entry is inserted into the TLB
system.cpu_cluster.cpus.itb.flushTlb                0                       # Number of times complete TLB was flushed
system.cpu_cluster.cpus.itb.flushTlbMva             0                       # Number of times TLB was flushed by MVA
system.cpu_cluster.cpus.itb.flushTlbMvaAsid            0                       # Number of times TLB was flushed by MVA & ASID
system.cpu_cluster.cpus.itb.flushTlbAsid            0                       # Number of times TLB was flushed by ASID
system.cpu_cluster.cpus.itb.flushedEntries            0                       # Number of entries that have been flushed from TLB
system.cpu_cluster.cpus.itb.alignFaults             0                       # Number of TLB faults due to alignment restrictions
system.cpu_cluster.cpus.itb.prefetchFaults            0                       # Number of TLB faults due to prefetch
system.cpu_cluster.cpus.itb.domainFaults            0                       # Number of TLB faults due to domain restrictions
system.cpu_cluster.cpus.itb.permsFaults             0                       # Number of TLB faults due to permissions restrictions
system.cpu_cluster.cpus.itb.readAccesses            0                       # DTB read accesses
system.cpu_cluster.cpus.itb.writeAccesses            0                       # DTB write accesses
system.cpu_cluster.cpus.itb.instAccesses            0                       # ITB inst accesses
system.cpu_cluster.cpus.itb.hits                    0                       # Total TLB (inst and data) hits
system.cpu_cluster.cpus.itb.misses                  0                       # Total TLB (inst and data) misses
system.cpu_cluster.cpus.itb.accesses                0                       # Total TLB (inst and data) accesses
system.cpu_cluster.cpus.itb.stage2_mmu.stage2_tlb.instHits            0                       # ITB inst hits
system.cpu_cluster.cpus.itb.stage2_mmu.stage2_tlb.instMisses            0                       # ITB inst misses
system.cpu_cluster.cpus.itb.stage2_mmu.stage2_tlb.readHits            0                       # DTB read hits
system.cpu_cluster.cpus.itb.stage2_mmu.stage2_tlb.readMisses            0                       # DTB read misses
system.cpu_cluster.cpus.itb.stage2_mmu.stage2_tlb.writeHits            0                       # DTB write hits
system.cpu_cluster.cpus.itb.stage2_mmu.stage2_tlb.writeMisses            0                       # DTB write misses
system.cpu_cluster.cpus.itb.stage2_mmu.stage2_tlb.inserts            0                       # Number of times an entry is inserted into the TLB
system.cpu_cluster.cpus.itb.stage2_mmu.stage2_tlb.flushTlb            0                       # Number of times complete TLB was flushed
system.cpu_cluster.cpus.itb.stage2_mmu.stage2_tlb.flushTlbMva            0                       # Number of times TLB was flushed by MVA
system.cpu_cluster.cpus.itb.stage2_mmu.stage2_tlb.flushTlbMvaAsid            0                       # Number of times TLB was flushed by MVA & ASID
system.cpu_cluster.cpus.itb.stage2_mmu.stage2_tlb.flushTlbAsid            0                       # Number of times TLB was flushed by ASID
system.cpu_cluster.cpus.itb.stage2_mmu.stage2_tlb.flushedEntries            0                       # Number of entries that have been flushed from TLB
system.cpu_cluster.cpus.itb.stage2_mmu.stage2_tlb.alignFaults            0                       # Number of TLB faults due to alignment restrictions
system.cpu_cluster.cpus.itb.stage2_mmu.stage2_tlb.prefetchFaults            0                       # Number of TLB faults due to prefetch
system.cpu_cluster.cpus.itb.stage2_mmu.stage2_tlb.domainFaults            0                       # Number of TLB faults due to domain restrictions
system.cpu_cluster.cpus.itb.stage2_mmu.stage2_tlb.permsFaults            0                       # Number of TLB faults due to permissions restrictions
system.cpu_cluster.cpus.itb.stage2_mmu.stage2_tlb.readAccesses            0                       # DTB read accesses
system.cpu_cluster.cpus.itb.stage2_mmu.stage2_tlb.writeAccesses            0                       # DTB write accesses
system.cpu_cluster.cpus.itb.stage2_mmu.stage2_tlb.instAccesses            0                       # ITB inst accesses
system.cpu_cluster.cpus.itb.stage2_mmu.stage2_tlb.hits            0                       # Total TLB (inst and data) hits
system.cpu_cluster.cpus.itb.stage2_mmu.stage2_tlb.misses            0                       # Total TLB (inst and data) misses
system.cpu_cluster.cpus.itb.stage2_mmu.stage2_tlb.accesses            0                       # Total TLB (inst and data) accesses
system.cpu_cluster.cpus.itb.stage2_mmu.stage2_tlb.walker.walks            0                       # Table walker walks requested
system.cpu_cluster.cpus.itb.stage2_mmu.stage2_tlb.walker.requestOrigin_Requested::Data            0                       # Table walker requests started/completed, data/inst
system.cpu_cluster.cpus.itb.stage2_mmu.stage2_tlb.walker.requestOrigin_Requested::Inst            0                       # Table walker requests started/completed, data/inst
system.cpu_cluster.cpus.itb.stage2_mmu.stage2_tlb.walker.requestOrigin_Requested::total            0                       # Table walker requests started/completed, data/inst
system.cpu_cluster.cpus.itb.stage2_mmu.stage2_tlb.walker.requestOrigin_Completed::Data            0                       # Table walker requests started/completed, data/inst
system.cpu_cluster.cpus.itb.stage2_mmu.stage2_tlb.walker.requestOrigin_Completed::Inst            0                       # Table walker requests started/completed, data/inst
system.cpu_cluster.cpus.itb.stage2_mmu.stage2_tlb.walker.requestOrigin_Completed::total            0                       # Table walker requests started/completed, data/inst
system.cpu_cluster.cpus.itb.stage2_mmu.stage2_tlb.walker.requestOrigin::total            0                       # Table walker requests started/completed, data/inst
system.cpu_cluster.cpus.itb.stage2_mmu.stage2_tlb.walker.power_state.pwrStateResidencyTicks::UNDEFINED     24483000                       # Cumulative time (in ticks) in various power states
system.cpu_cluster.cpus.itb.walker.walks            0                       # Table walker walks requested
system.cpu_cluster.cpus.itb.walker.requestOrigin_Requested::Data            0                       # Table walker requests started/completed, data/inst
system.cpu_cluster.cpus.itb.walker.requestOrigin_Requested::Inst            0                       # Table walker requests started/completed, data/inst
system.cpu_cluster.cpus.itb.walker.requestOrigin_Requested::total            0                       # Table walker requests started/completed, data/inst
system.cpu_cluster.cpus.itb.walker.requestOrigin_Completed::Data            0                       # Table walker requests started/completed, data/inst
system.cpu_cluster.cpus.itb.walker.requestOrigin_Completed::Inst            0                       # Table walker requests started/completed, data/inst
system.cpu_cluster.cpus.itb.walker.requestOrigin_Completed::total            0                       # Table walker requests started/completed, data/inst
system.cpu_cluster.cpus.itb.walker.requestOrigin::total            0                       # Table walker requests started/completed, data/inst
system.cpu_cluster.cpus.itb.walker.power_state.pwrStateResidencyTicks::UNDEFINED     24483000                       # Cumulative time (in ticks) in various power states
system.cpu_cluster.cpus.itb_walker_cache.blocked_cycles::no_mshrs            0                       # number of cycles access was blocked
system.cpu_cluster.cpus.itb_walker_cache.blocked_cycles::no_targets            0                       # number of cycles access was blocked
system.cpu_cluster.cpus.itb_walker_cache.blocked::no_mshrs            0                       # number of cycles access was blocked
system.cpu_cluster.cpus.itb_walker_cache.blocked::no_targets            0                       # number of cycles access was blocked
system.cpu_cluster.cpus.itb_walker_cache.avg_blocked_cycles::no_mshrs          nan                       # average number of cycles each access was blocked
system.cpu_cluster.cpus.itb_walker_cache.avg_blocked_cycles::no_targets          nan                       # average number of cycles each access was blocked
system.cpu_cluster.cpus.itb_walker_cache.replacements            0                       # number of replacements
system.cpu_cluster.cpus.itb_walker_cache.power_state.pwrStateResidencyTicks::UNDEFINED     24483000                       # Cumulative time (in ticks) in various power states
system.cpu_cluster.cpus.itb_walker_cache.tags.tagsinuse            0                       # Cycle average of tags in use
system.cpu_cluster.cpus.itb_walker_cache.tags.total_refs            0                       # Total number of references to valid blocks.
system.cpu_cluster.cpus.itb_walker_cache.tags.sampled_refs            0                       # Sample count of references to valid blocks.
system.cpu_cluster.cpus.itb_walker_cache.tags.avg_refs          nan                       # Average number of references to valid blocks.
system.cpu_cluster.cpus.itb_walker_cache.tags.warmup_cycle            0                       # Cycle when the warmup percentage was hit.
system.cpu_cluster.cpus.itb_walker_cache.tags.tag_accesses            0                       # Number of tag accesses
system.cpu_cluster.cpus.itb_walker_cache.tags.data_accesses            0                       # Number of data accesses
system.cpu_cluster.cpus.itb_walker_cache.tags.power_state.pwrStateResidencyTicks::UNDEFINED     24483000                       # Cumulative time (in ticks) in various power states
system.cpu_cluster.cpus.power_state.pwrStateResidencyTicks::ON     24483000                       # Cumulative time (in ticks) in various power states
system.cpu_cluster.cpus.thread_0.numInsts         5149                       # Number of Instructions committed
system.cpu_cluster.cpus.thread_0.numOps          5961                       # Number of Ops committed
system.cpu_cluster.cpus.thread_0.numMemRefs            0                       # Number of Memory References
system.cpu_cluster.l2.demand_misses::.cpu_cluster.cpus.inst          332                       # number of demand (read+write) misses
system.cpu_cluster.l2.demand_misses::.cpu_cluster.cpus.data          148                       # number of demand (read+write) misses
system.cpu_cluster.l2.demand_misses::total          480                       # number of demand (read+write) misses
system.cpu_cluster.l2.overall_misses::.cpu_cluster.cpus.inst          332                       # number of overall misses
system.cpu_cluster.l2.overall_misses::.cpu_cluster.cpus.data          148                       # number of overall misses
system.cpu_cluster.l2.overall_misses::total          480                       # number of overall misses
system.cpu_cluster.l2.demand_miss_latency::.cpu_cluster.cpus.inst     19465250                       # number of demand (read+write) miss cycles
system.cpu_cluster.l2.demand_miss_latency::.cpu_cluster.cpus.data      8849250                       # number of demand (read+write) miss cycles
system.cpu_cluster.l2.demand_miss_latency::total     28314500                       # number of demand (read+write) miss cycles
system.cpu_cluster.l2.overall_miss_latency::.cpu_cluster.cpus.inst     19465250                       # number of overall miss cycles
system.cpu_cluster.l2.overall_miss_latency::.cpu_cluster.cpus.data      8849250                       # number of overall miss cycles
system.cpu_cluster.l2.overall_miss_latency::total     28314500                       # number of overall miss cycles
system.cpu_cluster.l2.demand_accesses::.cpu_cluster.cpus.inst          332                       # number of demand (read+write) accesses
system.cpu_cluster.l2.demand_accesses::.cpu_cluster.cpus.data          148                       # number of demand (read+write) accesses
system.cpu_cluster.l2.demand_accesses::total          480                       # number of demand (read+write) accesses
system.cpu_cluster.l2.overall_accesses::.cpu_cluster.cpus.inst          332                       # number of overall (read+write) accesses
system.cpu_cluster.l2.overall_accesses::.cpu_cluster.cpus.data          148                       # number of overall (read+write) accesses
system.cpu_cluster.l2.overall_accesses::total          480                       # number of overall (read+write) accesses
system.cpu_cluster.l2.demand_miss_rate::.cpu_cluster.cpus.inst            1                       # miss rate for demand accesses
system.cpu_cluster.l2.demand_miss_rate::.cpu_cluster.cpus.data            1                       # miss rate for demand accesses
system.cpu_cluster.l2.demand_miss_rate::total            1                       # miss rate for demand accesses
system.cpu_cluster.l2.overall_miss_rate::.cpu_cluster.cpus.inst            1                       # miss rate for overall accesses
system.cpu_cluster.l2.overall_miss_rate::.cpu_cluster.cpus.data            1                       # miss rate for overall accesses
system.cpu_cluster.l2.overall_miss_rate::total            1                       # miss rate for overall accesses
system.cpu_cluster.l2.demand_avg_miss_latency::.cpu_cluster.cpus.inst 58630.271084                       # average overall miss latency
system.cpu_cluster.l2.demand_avg_miss_latency::.cpu_cluster.cpus.data 59792.229730                       # average overall miss latency
system.cpu_cluster.l2.demand_avg_miss_latency::total 58988.541667                       # average overall miss latency
system.cpu_cluster.l2.overall_avg_miss_latency::.cpu_cluster.cpus.inst 58630.271084                       # average overall miss latency
system.cpu_cluster.l2.overall_avg_miss_latency::.cpu_cluster.cpus.data 59792.229730                       # average overall miss latency
system.cpu_cluster.l2.overall_avg_miss_latency::total 58988.541667                       # average overall miss latency
system.cpu_cluster.l2.blocked_cycles::no_mshrs            0                       # number of cycles access was blocked
system.cpu_cluster.l2.blocked_cycles::no_targets            0                       # number of cycles access was blocked
system.cpu_cluster.l2.blocked::no_mshrs             0                       # number of cycles access was blocked
system.cpu_cluster.l2.blocked::no_targets            0                       # number of cycles access was blocked
system.cpu_cluster.l2.avg_blocked_cycles::no_mshrs          nan                       # average number of cycles each access was blocked
system.cpu_cluster.l2.avg_blocked_cycles::no_targets          nan                       # average number of cycles each access was blocked
system.cpu_cluster.l2.demand_mshr_hits::.cpu_cluster.cpus.inst            3                       # number of demand (read+write) MSHR hits
system.cpu_cluster.l2.demand_mshr_hits::.cpu_cluster.cpus.data            7                       # number of demand (read+write) MSHR hits
system.cpu_cluster.l2.demand_mshr_hits::total           10                       # number of demand (read+write) MSHR hits
system.cpu_cluster.l2.overall_mshr_hits::.cpu_cluster.cpus.inst            3                       # number of overall MSHR hits
system.cpu_cluster.l2.overall_mshr_hits::.cpu_cluster.cpus.data            7                       # number of overall MSHR hits
system.cpu_cluster.l2.overall_mshr_hits::total           10                       # number of overall MSHR hits
system.cpu_cluster.l2.demand_mshr_misses::.cpu_cluster.cpus.inst          329                       # number of demand (read+write) MSHR misses
system.cpu_cluster.l2.demand_mshr_misses::.cpu_cluster.cpus.data          141                       # number of demand (read+write) MSHR misses
system.cpu_cluster.l2.demand_mshr_misses::total          470                       # number of demand (read+write) MSHR misses
system.cpu_cluster.l2.overall_mshr_misses::.cpu_cluster.cpus.inst          329                       # number of overall MSHR misses
system.cpu_cluster.l2.overall_mshr_misses::.cpu_cluster.cpus.data          141                       # number of overall MSHR misses
system.cpu_cluster.l2.overall_mshr_misses::total          470                       # number of overall MSHR misses
system.cpu_cluster.l2.demand_mshr_miss_latency::.cpu_cluster.cpus.inst     19021750                       # number of demand (read+write) MSHR miss cycles
system.cpu_cluster.l2.demand_mshr_miss_latency::.cpu_cluster.cpus.data      8035750                       # number of demand (read+write) MSHR miss cycles
system.cpu_cluster.l2.demand_mshr_miss_latency::total     27057500                       # number of demand (read+write) MSHR miss cycles
system.cpu_cluster.l2.overall_mshr_miss_latency::.cpu_cluster.cpus.inst     19021750                       # number of overall MSHR miss cycles
system.cpu_cluster.l2.overall_mshr_miss_latency::.cpu_cluster.cpus.data      8035750                       # number of overall MSHR miss cycles
system.cpu_cluster.l2.overall_mshr_miss_latency::total     27057500                       # number of overall MSHR miss cycles
system.cpu_cluster.l2.demand_mshr_miss_rate::.cpu_cluster.cpus.inst     0.990964                       # mshr miss rate for demand accesses
system.cpu_cluster.l2.demand_mshr_miss_rate::.cpu_cluster.cpus.data     0.952703                       # mshr miss rate for demand accesses
system.cpu_cluster.l2.demand_mshr_miss_rate::total     0.979167                       # mshr miss rate for demand accesses
system.cpu_cluster.l2.overall_mshr_miss_rate::.cpu_cluster.cpus.inst     0.990964                       # mshr miss rate for overall accesses
system.cpu_cluster.l2.overall_mshr_miss_rate::.cpu_cluster.cpus.data     0.952703                       # mshr miss rate for overall accesses
system.cpu_cluster.l2.overall_mshr_miss_rate::total     0.979167                       # mshr miss rate for overall accesses
system.cpu_cluster.l2.demand_avg_mshr_miss_latency::.cpu_cluster.cpus.inst 57816.869301                       # average overall mshr miss latency
system.cpu_cluster.l2.demand_avg_mshr_miss_latency::.cpu_cluster.cpus.data 56991.134752                       # average overall mshr miss latency
system.cpu_cluster.l2.demand_avg_mshr_miss_latency::total 57569.148936                       # average overall mshr miss latency
system.cpu_cluster.l2.overall_avg_mshr_miss_latency::.cpu_cluster.cpus.inst 57816.869301                       # average overall mshr miss latency
system.cpu_cluster.l2.overall_avg_mshr_miss_latency::.cpu_cluster.cpus.data 56991.134752                       # average overall mshr miss latency
system.cpu_cluster.l2.overall_avg_mshr_miss_latency::total 57569.148936                       # average overall mshr miss latency
system.cpu_cluster.l2.replacements                  0                       # number of replacements
system.cpu_cluster.l2.WritebackClean_hits::.writebacks           12                       # number of WritebackClean hits
system.cpu_cluster.l2.WritebackClean_hits::total           12                       # number of WritebackClean hits
system.cpu_cluster.l2.WritebackClean_accesses::.writebacks           12                       # number of WritebackClean accesses(hits+misses)
system.cpu_cluster.l2.WritebackClean_accesses::total           12                       # number of WritebackClean accesses(hits+misses)
system.cpu_cluster.l2.CleanEvict_mshr_misses::.writebacks            1                       # number of CleanEvict MSHR misses
system.cpu_cluster.l2.CleanEvict_mshr_misses::total            1                       # number of CleanEvict MSHR misses
system.cpu_cluster.l2.CleanEvict_mshr_miss_rate::.writebacks          inf                       # mshr miss rate for CleanEvict accesses
system.cpu_cluster.l2.CleanEvict_mshr_miss_rate::total          inf                       # mshr miss rate for CleanEvict accesses
system.cpu_cluster.l2.ReadExReq_misses::.cpu_cluster.cpus.data           42                       # number of ReadExReq misses
system.cpu_cluster.l2.ReadExReq_misses::total           42                       # number of ReadExReq misses
system.cpu_cluster.l2.ReadExReq_miss_latency::.cpu_cluster.cpus.data      2411500                       # number of ReadExReq miss cycles
system.cpu_cluster.l2.ReadExReq_miss_latency::total      2411500                       # number of ReadExReq miss cycles
system.cpu_cluster.l2.ReadExReq_accesses::.cpu_cluster.cpus.data           42                       # number of ReadExReq accesses(hits+misses)
system.cpu_cluster.l2.ReadExReq_accesses::total           42                       # number of ReadExReq accesses(hits+misses)
system.cpu_cluster.l2.ReadExReq_miss_rate::.cpu_cluster.cpus.data            1                       # miss rate for ReadExReq accesses
system.cpu_cluster.l2.ReadExReq_miss_rate::total            1                       # miss rate for ReadExReq accesses
system.cpu_cluster.l2.ReadExReq_avg_miss_latency::.cpu_cluster.cpus.data 57416.666667                       # average ReadExReq miss latency
system.cpu_cluster.l2.ReadExReq_avg_miss_latency::total 57416.666667                       # average ReadExReq miss latency
system.cpu_cluster.l2.ReadExReq_mshr_misses::.cpu_cluster.cpus.data           42                       # number of ReadExReq MSHR misses
system.cpu_cluster.l2.ReadExReq_mshr_misses::total           42                       # number of ReadExReq MSHR misses
system.cpu_cluster.l2.ReadExReq_mshr_miss_latency::.cpu_cluster.cpus.data      2359000                       # number of ReadExReq MSHR miss cycles
system.cpu_cluster.l2.ReadExReq_mshr_miss_latency::total      2359000                       # number of ReadExReq MSHR miss cycles
system.cpu_cluster.l2.ReadExReq_mshr_miss_rate::.cpu_cluster.cpus.data            1                       # mshr miss rate for ReadExReq accesses
system.cpu_cluster.l2.ReadExReq_mshr_miss_rate::total            1                       # mshr miss rate for ReadExReq accesses
system.cpu_cluster.l2.ReadExReq_avg_mshr_miss_latency::.cpu_cluster.cpus.data 56166.666667                       # average ReadExReq mshr miss latency
system.cpu_cluster.l2.ReadExReq_avg_mshr_miss_latency::total 56166.666667                       # average ReadExReq mshr miss latency
system.cpu_cluster.l2.ReadCleanReq_misses::.cpu_cluster.cpus.inst          332                       # number of ReadCleanReq misses
system.cpu_cluster.l2.ReadCleanReq_misses::total          332                       # number of ReadCleanReq misses
system.cpu_cluster.l2.ReadCleanReq_miss_latency::.cpu_cluster.cpus.inst     19465250                       # number of ReadCleanReq miss cycles
system.cpu_cluster.l2.ReadCleanReq_miss_latency::total     19465250                       # number of ReadCleanReq miss cycles
system.cpu_cluster.l2.ReadCleanReq_accesses::.cpu_cluster.cpus.inst          332                       # number of ReadCleanReq accesses(hits+misses)
system.cpu_cluster.l2.ReadCleanReq_accesses::total          332                       # number of ReadCleanReq accesses(hits+misses)
system.cpu_cluster.l2.ReadCleanReq_miss_rate::.cpu_cluster.cpus.inst            1                       # miss rate for ReadCleanReq accesses
system.cpu_cluster.l2.ReadCleanReq_miss_rate::total            1                       # miss rate for ReadCleanReq accesses
system.cpu_cluster.l2.ReadCleanReq_avg_miss_latency::.cpu_cluster.cpus.inst 58630.271084                       # average ReadCleanReq miss latency
system.cpu_cluster.l2.ReadCleanReq_avg_miss_latency::total 58630.271084                       # average ReadCleanReq miss latency
system.cpu_cluster.l2.ReadCleanReq_mshr_hits::.cpu_cluster.cpus.inst            3                       # number of ReadCleanReq MSHR hits
system.cpu_cluster.l2.ReadCleanReq_mshr_hits::total            3                       # number of ReadCleanReq MSHR hits
system.cpu_cluster.l2.ReadCleanReq_mshr_misses::.cpu_cluster.cpus.inst          329                       # number of ReadCleanReq MSHR misses
system.cpu_cluster.l2.ReadCleanReq_mshr_misses::total          329                       # number of ReadCleanReq MSHR misses
system.cpu_cluster.l2.ReadCleanReq_mshr_miss_latency::.cpu_cluster.cpus.inst     19021750                       # number of ReadCleanReq MSHR miss cycles
system.cpu_cluster.l2.ReadCleanReq_mshr_miss_latency::total     19021750                       # number of ReadCleanReq MSHR miss cycles
system.cpu_cluster.l2.ReadCleanReq_mshr_miss_rate::.cpu_cluster.cpus.inst     0.990964                       # mshr miss rate for ReadCleanReq accesses
system.cpu_cluster.l2.ReadCleanReq_mshr_miss_rate::total     0.990964                       # mshr miss rate for ReadCleanReq accesses
system.cpu_cluster.l2.ReadCleanReq_avg_mshr_miss_latency::.cpu_cluster.cpus.inst 57816.869301                       # average ReadCleanReq mshr miss latency
system.cpu_cluster.l2.ReadCleanReq_avg_mshr_miss_latency::total 57816.869301                       # average ReadCleanReq mshr miss latency
system.cpu_cluster.l2.ReadSharedReq_misses::.cpu_cluster.cpus.data          106                       # number of ReadSharedReq misses
system.cpu_cluster.l2.ReadSharedReq_misses::total          106                       # number of ReadSharedReq misses
system.cpu_cluster.l2.ReadSharedReq_miss_latency::.cpu_cluster.cpus.data      6437750                       # number of ReadSharedReq miss cycles
system.cpu_cluster.l2.ReadSharedReq_miss_latency::total      6437750                       # number of ReadSharedReq miss cycles
system.cpu_cluster.l2.ReadSharedReq_accesses::.cpu_cluster.cpus.data          106                       # number of ReadSharedReq accesses(hits+misses)
system.cpu_cluster.l2.ReadSharedReq_accesses::total          106                       # number of ReadSharedReq accesses(hits+misses)
system.cpu_cluster.l2.ReadSharedReq_miss_rate::.cpu_cluster.cpus.data            1                       # miss rate for ReadSharedReq accesses
system.cpu_cluster.l2.ReadSharedReq_miss_rate::total            1                       # miss rate for ReadSharedReq accesses
system.cpu_cluster.l2.ReadSharedReq_avg_miss_latency::.cpu_cluster.cpus.data 60733.490566                       # average ReadSharedReq miss latency
system.cpu_cluster.l2.ReadSharedReq_avg_miss_latency::total 60733.490566                       # average ReadSharedReq miss latency
system.cpu_cluster.l2.ReadSharedReq_mshr_hits::.cpu_cluster.cpus.data            7                       # number of ReadSharedReq MSHR hits
system.cpu_cluster.l2.ReadSharedReq_mshr_hits::total            7                       # number of ReadSharedReq MSHR hits
system.cpu_cluster.l2.ReadSharedReq_mshr_misses::.cpu_cluster.cpus.data           99                       # number of ReadSharedReq MSHR misses
system.cpu_cluster.l2.ReadSharedReq_mshr_misses::total           99                       # number of ReadSharedReq MSHR misses
system.cpu_cluster.l2.ReadSharedReq_mshr_miss_latency::.cpu_cluster.cpus.data      5676750                       # number of ReadSharedReq MSHR miss cycles
system.cpu_cluster.l2.ReadSharedReq_mshr_miss_latency::total      5676750                       # number of ReadSharedReq MSHR miss cycles
system.cpu_cluster.l2.ReadSharedReq_mshr_miss_rate::.cpu_cluster.cpus.data     0.933962                       # mshr miss rate for ReadSharedReq accesses
system.cpu_cluster.l2.ReadSharedReq_mshr_miss_rate::total     0.933962                       # mshr miss rate for ReadSharedReq accesses
[...]
system.mem_ctrls1.totGap                     24332000                       # Total gap between requests
system.mem_ctrls1.avgGap                    104429.18                       # Average gap between requests
system.mem_ctrls1.requestorReadBytes::.cpu_cluster.cpus.inst        10304                       # Per-requestor bytes read from memory
system.mem_ctrls1.requestorReadBytes::.cpu_cluster.cpus.data         4608                       # Per-requestor bytes read from memory
system.mem_ctrls1.requestorReadRate::.cpu_cluster.cpus.inst 420863456.275783181190                       # Per-requestor bytes read from memory rate (Bytes/sec)
system.mem_ctrls1.requestorReadRate::.cpu_cluster.cpus.data 188212228.893517971039                       # Per-requestor bytes read from memory rate (Bytes/sec)
system.mem_ctrls1.requestorReadAccesses::.cpu_cluster.cpus.inst          161                       # Per-requestor read serviced memory accesses
system.mem_ctrls1.requestorReadAccesses::.cpu_cluster.cpus.data           72                       # Per-requestor read serviced memory accesses
system.mem_ctrls1.requestorReadTotalLat::.cpu_cluster.cpus.inst      3714750                       # Per-requestor read total memory access latency
system.mem_ctrls1.requestorReadTotalLat::.cpu_cluster.cpus.data      1627250                       # Per-requestor read total memory access latency
system.mem_ctrls1.requestorReadAvgLat::.cpu_cluster.cpus.inst     23072.98                       # Per-requestor read average memory access latency
system.mem_ctrls1.requestorReadAvgLat::.cpu_cluster.cpus.data     22600.69                       # Per-requestor read average memory access latency
system.mem_ctrls1.dram.bytes_read::.cpu_cluster.cpus.inst        10304                       # Number of bytes read from this memory
system.mem_ctrls1.dram.bytes_read::.cpu_cluster.cpus.data         4608                       # Number of bytes read from this memory
system.mem_ctrls1.dram.bytes_read::total        14912                       # Number of bytes read from this memory
system.mem_ctrls1.dram.bytes_inst_read::.cpu_cluster.cpus.inst        10304                       # Number of instructions bytes read from this memory
system.mem_ctrls1.dram.bytes_inst_read::total        10304                       # Number of instructions bytes read from this memory
system.mem_ctrls1.dram.num_reads::.cpu_cluster.cpus.inst          161                       # Number of read requests responded to by this memory
system.mem_ctrls1.dram.num_reads::.cpu_cluster.cpus.data           72                       # Number of read requests responded to by this memory
system.mem_ctrls1.dram.num_reads::total           233                       # Number of read requests responded to by this memory
system.mem_ctrls1.dram.bw_read::.cpu_cluster.cpus.inst    420863456                       # Total read bandwidth from this memory (bytes/s)
system.mem_ctrls1.dram.bw_read::.cpu_cluster.cpus.data    188212229                       # Total read bandwidth from this memory (bytes/s)
system.mem_ctrls1.dram.bw_read::total       609075685                       # Total read bandwidth from this memory (bytes/s)
system.mem_ctrls1.dram.bw_inst_read::.cpu_cluster.cpus.inst    420863456                       # Instruction read bandwidth from this memory (bytes/s)
system.mem_ctrls1.dram.bw_inst_read::total    420863456                       # Instruction read bandwidth from this memory (bytes/s)
system.mem_ctrls1.dram.bw_total::.cpu_cluster.cpus.inst    420863456                       # Total bandwidth to/from this memory (bytes/s)
system.mem_ctrls1.dram.bw_total::.cpu_cluster.cpus.data    188212229                       # Total bandwidth to/from this memory (bytes/s)
system.mem_ctrls1.dram.bw_total::total      609075685                       # Total bandwidth to/from this memory (bytes/s)
system.mem_ctrls1.dram.readBursts                 233                       # Number of DRAM read bursts
system.mem_ctrls1.dram.writeBursts                  0                       # Number of DRAM write bursts
system.mem_ctrls1.dram.perBankRdBursts::0           55                       # Per bank write bursts
system.mem_ctrls1.dram.perBankRdBursts::1           28                       # Per bank write bursts
system.mem_ctrls1.dram.perBankRdBursts::2           29                       # Per bank write bursts
system.mem_ctrls1.dram.perBankRdBursts::3           23                       # Per bank write bursts
system.mem_ctrls1.dram.perBankRdBursts::4            6                       # Per bank write bursts
system.mem_ctrls1.dram.perBankRdBursts::5            4                       # Per bank write bursts
system.mem_ctrls1.dram.perBankRdBursts::6            4                       # Per bank write bursts
system.mem_ctrls1.dram.perBankRdBursts::7            5                       # Per bank write bursts
system.mem_ctrls1.dram.perBankRdBursts::8           24                       # Per bank write bursts
system.mem_ctrls1.dram.perBankRdBursts::9            0                       # Per bank write bursts
system.mem_ctrls1.dram.perBankRdBursts::10            5                       # Per bank write bursts
system.mem_ctrls1.dram.perBankRdBursts::11            7                       # Per bank write bursts
system.mem_ctrls1.dram.perBankRdBursts::12            1                       # Per bank write bursts
system.mem_ctrls1.dram.perBankRdBursts::13           36                       # Per bank write bursts
system.mem_ctrls1.dram.perBankRdBursts::14            6                       # Per bank write bursts
system.mem_ctrls1.dram.perBankRdBursts::15            0                       # Per bank write bursts
system.mem_ctrls1.dram.perBankWrBursts::0            0                       # Per bank write bursts
system.mem_ctrls1.dram.perBankWrBursts::1            0                       # Per bank write bursts
system.mem_ctrls1.dram.perBankWrBursts::2            0                       # Per bank write bursts
system.mem_ctrls1.dram.perBankWrBursts::3            0                       # Per bank write bursts
system.mem_ctrls1.dram.perBankWrBursts::4            0                       # Per bank write bursts
system.mem_ctrls1.dram.perBankWrBursts::5            0                       # Per bank write bursts
system.mem_ctrls1.dram.perBankWrBursts::6            0                       # Per bank write bursts
system.mem_ctrls1.dram.perBankWrBursts::7            0                       # Per bank write bursts
system.mem_ctrls1.dram.perBankWrBursts::8            0                       # Per bank write bursts
system.mem_ctrls1.dram.perBankWrBursts::9            0                       # Per bank write bursts
system.mem_ctrls1.dram.perBankWrBursts::10            0                       # Per bank write bursts
system.mem_ctrls1.dram.perBankWrBursts::11            0                       # Per bank write bursts
system.mem_ctrls1.dram.perBankWrBursts::12            0                       # Per bank write bursts
system.mem_ctrls1.dram.perBankWrBursts::13            0                       # Per bank write bursts
system.mem_ctrls1.dram.perBankWrBursts::14            0                       # Per bank write bursts
system.mem_ctrls1.dram.perBankWrBursts::15            0                       # Per bank write bursts
system.mem_ctrls1.dram.totQLat                 973250                       # Total ticks spent queuing
system.mem_ctrls1.dram.totBusLat              1165000                       # Total ticks spent in databus transfers
system.mem_ctrls1.dram.totMemAccLat           5342000                       # Total ticks spent from burst creation until serviced by the DRAM
system.mem_ctrls1.dram.avgQLat                4177.04                       # Average queueing delay per DRAM burst
system.mem_ctrls1.dram.avgBusLat              5000.00                       # Average bus latency per DRAM burst
system.mem_ctrls1.dram.avgMemAccLat          22927.04                       # Average memory access latency per DRAM burst
system.mem_ctrls1.dram.readRowHits                192                       # Number of row buffer hits during reads
system.mem_ctrls1.dram.writeRowHits                 0                       # Number of row buffer hits during writes
system.mem_ctrls1.dram.readRowHitRate           82.40                       # Row buffer hit rate for reads
system.mem_ctrls1.dram.writeRowHitRate            nan                       # Row buffer hit rate for writes
system.mem_ctrls1.dram.bytesPerActivate::samples           38                       # Bytes accessed per row activation
system.mem_ctrls1.dram.bytesPerActivate::mean          384                       # Bytes accessed per row activation
system.mem_ctrls1.dram.bytesPerActivate::gmean   239.551850                       # Bytes accessed per row activation
system.mem_ctrls1.dram.bytesPerActivate::stdev   361.426603                       # Bytes accessed per row activation
system.mem_ctrls1.dram.bytesPerActivate::0-127            9     23.68%     23.68% # Bytes accessed per row activation
system.mem_ctrls1.dram.bytesPerActivate::128-255           11     28.95%     52.63% # Bytes accessed per row activation
system.mem_ctrls1.dram.bytesPerActivate::256-383            5     13.16%     65.79% # Bytes accessed per row activation
system.mem_ctrls1.dram.bytesPerActivate::384-511            2      5.26%     71.05% # Bytes accessed per row activation
system.mem_ctrls1.dram.bytesPerActivate::512-639            2      5.26%     76.32% # Bytes accessed per row activation
system.mem_ctrls1.dram.bytesPerActivate::768-895            1      2.63%     78.95% # Bytes accessed per row activation
system.mem_ctrls1.dram.bytesPerActivate::896-1023            3      7.89%     86.84% # Bytes accessed per row activation
system.mem_ctrls1.dram.bytesPerActivate::1024-1151            5     13.16%    100.00% # Bytes accessed per row activation
system.mem_ctrls1.dram.bytesPerActivate::total           38                       # Bytes accessed per row activation
system.mem_ctrls1.dram.bytesRead                14912                       # Total number of bytes read from DRAM
system.mem_ctrls1.dram.bytesWritten                 0                       # Total number of bytes written to DRAM
system.mem_ctrls1.dram.avgRdBW             609.075685                       # Average DRAM read bandwidth in MiBytes/s
system.mem_ctrls1.dram.avgWrBW                      0                       # Average DRAM write bandwidth in MiBytes/s
system.mem_ctrls1.dram.peakBW                12800.00                       # Theoretical peak bandwidth in MiByte/s
system.mem_ctrls1.dram.busUtil                   4.76                       # Data bus utilization in percentage
system.mem_ctrls1.dram.busUtilRead               4.76                       # Data bus utilization in percentage for reads
system.mem_ctrls1.dram.busUtilWrite              0.00                       # Data bus utilization in percentage for writes
system.mem_ctrls1.dram.pageHitRate              82.40                       # Row buffer hit rate, read and write combined
system.mem_ctrls1.dram.power_state.pwrStateResidencyTicks::UNDEFINED     24483000                       # Cumulative time (in ticks) in various power states
system.mem_ctrls1.dram.rank0.actEnergy         185640                       # Energy for activate commands per rank (pJ)
system.mem_ctrls1.dram.rank0.preEnergy          91080                       # Energy for precharge commands per rank (pJ)
system.mem_ctrls1.dram.rank0.readEnergy       1099560                       # Energy for read commands per rank (pJ)
system.mem_ctrls1.dram.rank0.writeEnergy            0                       # Energy for write commands per rank (pJ)
system.mem_ctrls1.dram.rank0.refreshEnergy 1843920.000000                       # Energy for refresh commands per rank (pJ)
system.mem_ctrls1.dram.rank0.actBackEnergy     11010120                       # Energy for active background per rank (pJ)
system.mem_ctrls1.dram.rank0.preBackEnergy       130080                       # Energy for precharge background per rank (pJ)
system.mem_ctrls1.dram.rank0.actPowerDownEnergy            0                       # Energy for active power-down per rank (pJ)
system.mem_ctrls1.dram.rank0.prePowerDownEnergy            0                       # Energy for precharge power-down per rank (pJ)
system.mem_ctrls1.dram.rank0.selfRefreshEnergy            0                       # Energy for self refresh per rank (pJ)
system.mem_ctrls1.dram.rank0.totalEnergy     14360400                       # Total energy per rank (pJ)
system.mem_ctrls1.dram.rank0.averagePower   586.545766                       # Core power per rank (mW)
system.mem_ctrls1.dram.rank0.totalIdleTime            0                       # Total Idle time Per DRAM Rank
system.mem_ctrls1.dram.rank0.pwrStateTime::IDLE       254000                       # Time in different power states
system.mem_ctrls1.dram.rank0.pwrStateTime::REF       780000                       # Time in different power states
system.mem_ctrls1.dram.rank0.pwrStateTime::SREF            0                       # Time in different power states
system.mem_ctrls1.dram.rank0.pwrStateTime::PRE_PDN            0                       # Time in different power states
system.mem_ctrls1.dram.rank0.pwrStateTime::ACT     23449000                       # Time in different power states
system.mem_ctrls1.dram.rank0.pwrStateTime::ACT_PDN            0                       # Time in different power states
system.mem_ctrls1.dram.rank1.actEnergy         107100                       # Energy for activate commands per rank (pJ)
system.mem_ctrls1.dram.rank1.preEnergy          53130                       # Energy for precharge commands per rank (pJ)
system.mem_ctrls1.dram.rank1.readEnergy        564060                       # Energy for read commands per rank (pJ)
system.mem_ctrls1.dram.rank1.writeEnergy            0                       # Energy for write commands per rank (pJ)
system.mem_ctrls1.dram.rank1.refreshEnergy 1843920.000000                       # Energy for refresh commands per rank (pJ)
system.mem_ctrls1.dram.rank1.actBackEnergy     10391670                       # Energy for active background per rank (pJ)
system.mem_ctrls1.dram.rank1.preBackEnergy       650880                       # Energy for precharge background per rank (pJ)
system.mem_ctrls1.dram.rank1.actPowerDownEnergy            0                       # Energy for active power-down per rank (pJ)
system.mem_ctrls1.dram.rank1.prePowerDownEnergy            0                       # Energy for precharge power-down per rank (pJ)
system.mem_ctrls1.dram.rank1.selfRefreshEnergy            0                       # Energy for self refresh per rank (pJ)
system.mem_ctrls1.dram.rank1.totalEnergy     13610760                       # Total energy per rank (pJ)
system.mem_ctrls1.dram.rank1.averagePower   555.926970                       # Core power per rank (mW)
system.mem_ctrls1.dram.rank1.totalIdleTime            0                       # Total Idle time Per DRAM Rank
system.mem_ctrls1.dram.rank1.pwrStateTime::IDLE      1610000                       # Time in different power states
system.mem_ctrls1.dram.rank1.pwrStateTime::REF       780000                       # Time in different power states
system.mem_ctrls1.dram.rank1.pwrStateTime::SREF            0                       # Time in different power states
system.mem_ctrls1.dram.rank1.pwrStateTime::PRE_PDN            0                       # Time in different power states
system.mem_ctrls1.dram.rank1.pwrStateTime::ACT     22093000                       # Time in different power states
system.mem_ctrls1.dram.rank1.pwrStateTime::ACT_PDN            0                       # Time in different power states
system.mem_ctrls1.power_state.pwrStateResidencyTicks::UNDEFINED     24483000                       # Cumulative time (in ticks) in various power states
system.membus.trans_dist::ReadResp                428                       # Transaction distribution
system.membus.trans_dist::CleanEvict                1                       # Transaction distribution
system.membus.trans_dist::ReadExReq                42                       # Transaction distribution
system.membus.trans_dist::ReadExResp               42                       # Transaction distribution
system.membus.trans_dist::ReadCleanReq            428                       # Transaction distribution
system.membus.pkt_count_system.cpu_cluster.l2.mem_side_port::system.mem_ctrls0.port          475                       # Packet count per connected requestor and responder (bytes)
system.membus.pkt_count_system.cpu_cluster.l2.mem_side_port::system.mem_ctrls1.port          466                       # Packet count per connected requestor and responder (bytes)
system.membus.pkt_count_system.cpu_cluster.l2.mem_side_port::total          941                       # Packet count per connected requestor and responder (bytes)
system.membus.pkt_count::total                    941                       # Packet count per connected requestor and responder (bytes)
system.membus.pkt_size_system.cpu_cluster.l2.mem_side_port::system.mem_ctrls0.port        15168                       # Cumulative packet size per connected requestor and responder (bytes)
system.membus.pkt_size_system.cpu_cluster.l2.mem_side_port::system.mem_ctrls1.port        14912                       # Cumulative packet size per connected requestor and responder (bytes)
system.membus.pkt_size_system.cpu_cluster.l2.mem_side_port::total        30080                       # Cumulative packet size per connected requestor and responder (bytes)
system.membus.pkt_size::total                   30080                       # Cumulative packet size per connected requestor and responder (bytes)
system.membus.snoops                                0                       # Total snoops (count)
system.membus.snoopTraffic                          0                       # Total snoop traffic (bytes)
system.membus.snoop_fanout::samples               470                       # Request fanout histogram
system.membus.snoop_fanout::mean                    0                       # Request fanout histogram
system.membus.snoop_fanout::stdev                   0                       # Request fanout histogram
system.membus.snoop_fanout::underflows              0      0.00%      0.00% # Request fanout histogram
system.membus.snoop_fanout::0                     470    100.00%    100.00% # Request fanout histogram
system.membus.snoop_fanout::1                       0      0.00%    100.00% # Request fanout histogram
system.membus.snoop_fanout::overflows               0      0.00%    100.00% # Request fanout histogram
system.membus.snoop_fanout::min_value               0                       # Request fanout histogram
system.membus.snoop_fanout::max_value               0                       # Request fanout histogram
system.membus.snoop_fanout::total                 470                       # Request fanout histogram
system.membus.power_state.pwrStateResidencyTicks::UNDEFINED     24483000                       # Cumulative time (in ticks) in various power states
system.membus.reqLayer0.occupancy              312750                       # Layer occupancy (ticks)
system.membus.reqLayer0.utilization               1.3                       # Layer utilization (%)
system.membus.reqLayer1.occupancy              300750                       # Layer occupancy (ticks)
system.membus.reqLayer1.utilization               1.2                       # Layer utilization (%)
system.membus.respLayer1.occupancy            2478750                       # Layer occupancy (ticks)
system.membus.respLayer1.utilization             10.1                       # Layer utilization (%)
system.voltage_domain.voltage                3.300000                       # Voltage in Volts

---------- End Simulation Statistics   ----------
