
---------- Begin Simulation Statistics ----------
final_tick                                84118074000                       # Number of ticks from beginning of simulation (restored from checkpoints and never reset)
host_inst_rate                                  73925                       # Simulator instruction rate (inst/s)
host_mem_usage                                 668988                       # Number of bytes of host memory used
host_op_rate                                    74106                       # Simulator op (including micro ops) rate (op/s)
host_seconds                                  1352.73                       # Real time elapsed on the host
host_tick_rate                               62183961                       # Simulator tick rate (ticks/s)
sim_freq                                 1000000000000                       # Frequency of simulated ticks
sim_insts                                   100000000                       # Number of instructions simulated
sim_ops                                     100245691                       # Number of ops (including micro ops) simulated
sim_seconds                                  0.084118                       # Number of seconds simulated
sim_ticks                                 84118074000                       # Number of ticks simulated
system.cpu.committedInsts                   100000000                       # Number of instructions committed
system.cpu.committedOps                     100245691                       # Number of ops (including micro ops) committed
system.cpu.cpi                               1.682361                       # CPI: cycles per instruction
system.cpu.discardedOps                        537560                       # Number of ops (including micro ops) which were discarded before commit
system.cpu.idleCycles                        37893159                       # Total number of cycles that the object has spent stopped
system.cpu.ipc                               0.594403                       # IPC: instructions per cycle
system.cpu.numCycles                        168236148                       # number of cpu cycles simulated
system.cpu.numFetchSuspends                         0                       # Number of times Execute suspended instruction fetching
system.cpu.numWorkItemsCompleted                    0                       # number of work items this cpu completed
system.cpu.numWorkItemsStarted                      0                       # number of work items this cpu started
system.cpu.op_class_0::No_OpClass                   0      0.00%      0.00% # Class of committed instruction
system.cpu.op_class_0::IntAlu                39795210     39.70%     39.70% # Class of committed instruction
system.cpu.op_class_0::IntMult                  20704      0.02%     39.72% # Class of committed instruction
system.cpu.op_class_0::IntDiv                       7      0.00%     39.72% # Class of committed instruction
system.cpu.op_class_0::FloatAdd                     0      0.00%     39.72% # Class of committed instruction
system.cpu.op_class_0::FloatCmp                     0      0.00%     39.72% # Class of committed instruction
system.cpu.op_class_0::FloatCvt                     0      0.00%     39.72% # Class of committed instruction
system.cpu.op_class_0::FloatMult                    0      0.00%     39.72% # Class of committed instruction
system.cpu.op_class_0::FloatMultAcc                 0      0.00%     39.72% # Class of committed instruction
system.cpu.op_class_0::FloatDiv                     0      0.00%     39.72% # Class of committed instruction
system.cpu.op_class_0::FloatMisc                    0      0.00%     39.72% # Class of committed instruction
system.cpu.op_class_0::FloatSqrt                    0      0.00%     39.72% # Class of committed instruction
system.cpu.op_class_0::SimdAdd                      0      0.00%     39.72% # Class of committed instruction
system.cpu.op_class_0::SimdAddAcc                   0      0.00%     39.72% # Class of committed instruction
system.cpu.op_class_0::SimdAlu                      0      0.00%     39.72% # Class of committed instruction
system.cpu.op_class_0::SimdCmp                      0      0.00%     39.72% # Class of committed instruction
system.cpu.op_class_0::SimdCvt                      0      0.00%     39.72% # Class of committed instruction
system.cpu.op_class_0::SimdMisc                     0      0.00%     39.72% # Class of committed instruction
system.cpu.op_class_0::SimdMult                     0      0.00%     39.72% # Class of committed instruction
system.cpu.op_class_0::SimdMultAcc                  0      0.00%     39.72% # Class of committed instruction
system.cpu.op_class_0::SimdShift                    0      0.00%     39.72% # Class of committed instruction
system.cpu.op_class_0::SimdShiftAcc                 0      0.00%     39.72% # Class of committed instruction
system.cpu.op_class_0::SimdDiv                      0      0.00%     39.72% # Class of committed instruction
system.cpu.op_class_0::SimdSqrt                     0      0.00%     39.72% # Class of committed instruction
system.cpu.op_class_0::SimdFloatAdd                 0      0.00%     39.72% # Class of committed instruction
system.cpu.op_class_0::SimdFloatAlu                 0      0.00%     39.72% # Class of committed instruction
system.cpu.op_class_0::SimdFloatCmp                 0      0.00%     39.72% # Class of committed instruction
system.cpu.op_class_0::SimdFloatCvt                 0      0.00%     39.72% # Class of committed instruction
system.cpu.op_class_0::SimdFloatDiv                 0      0.00%     39.72% # Class of committed instruction
system.cpu.op_class_0::SimdFloatMisc              102      0.00%     39.72% # Class of committed instruction
system.cpu.op_class_0::SimdFloatMult                0      0.00%     39.72% # Class of committed instruction
system.cpu.op_class_0::SimdFloatMultAcc             0      0.00%     39.72% # Class of committed instruction
system.cpu.op_class_0::SimdFloatSqrt                0      0.00%     39.72% # Class of committed instruction
system.cpu.op_class_0::SimdReduceAdd                0      0.00%     39.72% # Class of committed instruction
system.cpu.op_class_0::SimdReduceAlu                0      0.00%     39.72% # Class of committed instruction
system.cpu.op_class_0::SimdReduceCmp                0      0.00%     39.72% # Class of committed instruction
system.cpu.op_class_0::SimdFloatReduceAdd            0      0.00%     39.72% # Class of committed instruction
system.cpu.op_class_0::SimdFloatReduceCmp            0      0.00%     39.72% # Class of committed instruction
system.cpu.op_class_0::SimdAes                      0      0.00%     39.72% # Class of committed instruction
system.cpu.op_class_0::SimdAesMix                   0      0.00%     39.72% # Class of committed instruction
system.cpu.op_class_0::SimdSha1Hash                 0      0.00%     39.72% # Class of committed instruction
system.cpu.op_class_0::SimdSha1Hash2                0      0.00%     39.72% # Class of committed instruction
system.cpu.op_class_0::SimdSha256Hash               0      0.00%     39.72% # Class of committed instruction
system.cpu.op_class_0::SimdSha256Hash2              0      0.00%     39.72% # Class of committed instruction
system.cpu.op_class_0::SimdShaSigma2                0      0.00%     39.72% # Class of committed instruction
system.cpu.op_class_0::SimdShaSigma3                0      0.00%     39.72% # Class of committed instruction
system.cpu.op_class_0::SimdPredAlu                  0      0.00%     39.72% # Class of committed instruction
system.cpu.op_class_0::MemRead               47464384     47.35%     87.07% # Class of committed instruction
system.cpu.op_class_0::MemWrite              12965284     12.93%    100.00% # Class of committed instruction
system.cpu.op_class_0::FloatMemRead                 0      0.00%    100.00% # Class of committed instruction
system.cpu.op_class_0::FloatMemWrite                0      0.00%    100.00% # Class of committed instruction
system.cpu.op_class_0::IprAccess                    0      0.00%    100.00% # Class of committed instruction
system.cpu.op_class_0::InstPrefetch                 0      0.00%    100.00% # Class of committed instruction
system.cpu.op_class_0::total                100245691                       # Class of committed instruction
system.cpu.tickCycles                       130342989                       # Number of cycles that the object actually ticked
system.cpu.workload.numSyscalls                    84                       # Number of system calls
system.membus.snoop_filter.hit_multi_requests            0                       # Number of requests hitting in the snoop filter with multiple (>1) holders of the requested data.
system.membus.snoop_filter.hit_multi_snoops            0                       # Number of snoops hitting in the snoop filter with multiple (>1) holders of the requested data.
system.membus.snoop_filter.hit_single_requests       177115                       # Number of requests hitting in the snoop filter with a single holder of the requested data.
system.membus.snoop_filter.hit_single_snoops            0                       # Number of snoops hitting in the snoop filter with a single holder of the requested data.
system.membus.snoop_filter.tot_requests        387416                       # Total number of requests made to the snoop filter.
system.membus.snoop_filter.tot_snoops               0                       # Total number of snoops made to the snoop filter.
system.tol2bus.snoop_filter.hit_multi_requests           52                       # Number of requests hitting in the snoop filter with multiple (>1) holders of the requested data.
system.tol2bus.snoop_filter.hit_multi_snoops            0                       # Number of snoops hitting in the snoop filter with multiple (>1) holders of the requested data.
system.tol2bus.snoop_filter.hit_single_requests       771532                       # Number of requests hitting in the snoop filter with a single holder of the requested data.
system.tol2bus.snoop_filter.hit_single_snoops          700                       # Number of snoops hitting in the snoop filter with a single holder of the requested data.
system.tol2bus.snoop_filter.tot_requests      1544601                       # Total number of requests made to the snoop filter.
system.tol2bus.snoop_filter.tot_snoops            700                       # Total number of snoops made to the snoop filter.
system.clk_domain.clock                          1000                       # Clock period in ticks
system.cpu.branchPred.lookups                 6047304                       # Number of BP lookups
system.cpu.branchPred.condPredicted           4457295                       # Number of conditional branches predicted
system.cpu.branchPred.condIncorrect            188275                       # Number of conditional branches incorrect
system.cpu.branchPred.BTBLookups              4573903                       # Number of BTB lookups
system.cpu.branchPred.BTBHits                 4571720                       # Number of BTB hits
system.cpu.branchPred.BTBHitPct             99.952273                       # BTB Hit Percentage
system.cpu.branchPred.RASUsed                  136249                       # Number of times the RAS was used to get a target.
system.cpu.branchPred.RASIncorrect                117                       # Number of incorrect RAS predictions.
system.cpu.branchPred.indirectLookups             508                       # Number of indirect predictor lookups.
system.cpu.branchPred.indirectHits                274                       # Number of indirect target hits.
system.cpu.branchPred.indirectMisses              234                       # Number of indirect misses.
system.cpu.branchPred.indirectMispredicted          145                       # Number of mispredicted indirect branches.
system.cpu.dcache.demand_hits::.cpu.data     57512535                       # number of demand (read+write) hits
system.cpu.dcache.demand_hits::total         57512535                       # number of demand (read+write) hits
system.cpu.dcache.overall_hits::.cpu.data     57512549                       # number of overall hits
system.cpu.dcache.overall_hits::total        57512549                       # number of overall hits
system.cpu.dcache.demand_misses::.cpu.data       835390                       # number of demand (read+write) misses
system.cpu.dcache.demand_misses::total         835390                       # number of demand (read+write) misses
system.cpu.dcache.overall_misses::.cpu.data       835406                       # number of overall misses
system.cpu.dcache.overall_misses::total        835406                       # number of overall misses
system.cpu.dcache.demand_miss_latency::.cpu.data  27271082500                       # number of demand (read+write) miss cycles
system.cpu.dcache.demand_miss_latency::total  27271082500                       # number of demand (read+write) miss cycles
system.cpu.dcache.overall_miss_latency::.cpu.data  27271082500                       # number of overall miss cycles
system.cpu.dcache.overall_miss_latency::total  27271082500                       # number of overall miss cycles
system.cpu.dcache.demand_accesses::.cpu.data     58347925                       # number of demand (read+write) accesses
system.cpu.dcache.demand_accesses::total     58347925                       # number of demand (read+write) accesses
system.cpu.dcache.overall_accesses::.cpu.data     58347955                       # number of overall (read+write) accesses
system.cpu.dcache.overall_accesses::total     58347955                       # number of overall (read+write) accesses
system.cpu.dcache.demand_miss_rate::.cpu.data     0.014317                       # miss rate for demand accesses
system.cpu.dcache.demand_miss_rate::total     0.014317                       # miss rate for demand accesses
system.cpu.dcache.overall_miss_rate::.cpu.data     0.014318                       # miss rate for overall accesses
system.cpu.dcache.overall_miss_rate::total     0.014318                       # miss rate for overall accesses
system.cpu.dcache.demand_avg_miss_latency::.cpu.data 32644.731802                       # average overall miss latency
system.cpu.dcache.demand_avg_miss_latency::total 32644.731802                       # average overall miss latency
system.cpu.dcache.overall_avg_miss_latency::.cpu.data 32644.106578                       # average overall miss latency
system.cpu.dcache.overall_avg_miss_latency::total 32644.106578                       # average overall miss latency
system.cpu.dcache.blocked_cycles::no_mshrs            0                       # number of cycles access was blocked
system.cpu.dcache.blocked_cycles::no_targets            0                       # number of cycles access was blocked
system.cpu.dcache.blocked::no_mshrs                 0                       # number of cycles access was blocked
system.cpu.dcache.blocked::no_targets               0                       # number of cycles access was blocked
system.cpu.dcache.avg_blocked_cycles::no_mshrs          nan                       # average number of cycles each access was blocked
system.cpu.dcache.avg_blocked_cycles::no_targets          nan                       # average number of cycles each access was blocked
system.cpu.dcache.writebacks::.writebacks       667862                       # number of writebacks
system.cpu.dcache.writebacks::total            667862                       # number of writebacks
system.cpu.dcache.demand_mshr_hits::.cpu.data        63150                       # number of demand (read+write) MSHR hits
system.cpu.dcache.demand_mshr_hits::total        63150                       # number of demand (read+write) MSHR hits
system.cpu.dcache.overall_mshr_hits::.cpu.data        63150                       # number of overall MSHR hits
system.cpu.dcache.overall_mshr_hits::total        63150                       # number of overall MSHR hits
system.cpu.dcache.demand_mshr_misses::.cpu.data       772240                       # number of demand (read+write) MSHR misses
system.cpu.dcache.demand_mshr_misses::total       772240                       # number of demand (read+write) MSHR misses
system.cpu.dcache.overall_mshr_misses::.cpu.data       772251                       # number of overall MSHR misses
system.cpu.dcache.overall_mshr_misses::total       772251                       # number of overall MSHR misses
system.cpu.dcache.demand_mshr_miss_latency::.cpu.data  24765923500                       # number of demand (read+write) MSHR miss cycles
system.cpu.dcache.demand_mshr_miss_latency::total  24765923500                       # number of demand (read+write) MSHR miss cycles
system.cpu.dcache.overall_mshr_miss_latency::.cpu.data  24766869000                       # number of overall MSHR miss cycles
system.cpu.dcache.overall_mshr_miss_latency::total  24766869000                       # number of overall MSHR miss cycles
system.cpu.dcache.demand_mshr_miss_rate::.cpu.data     0.013235                       # mshr miss rate for demand accesses
system.cpu.dcache.demand_mshr_miss_rate::total     0.013235                       # mshr miss rate for demand accesses
system.cpu.dcache.overall_mshr_miss_rate::.cpu.data     0.013235                       # mshr miss rate for overall accesses
system.cpu.dcache.overall_mshr_miss_rate::total     0.013235                       # mshr miss rate for overall accesses
system.cpu.dcache.demand_avg_mshr_miss_latency::.cpu.data 32070.241764                       # average overall mshr miss latency
system.cpu.dcache.demand_avg_mshr_miss_latency::total 32070.241764                       # average overall mshr miss latency
system.cpu.dcache.overall_avg_mshr_miss_latency::.cpu.data 32071.009296                       # average overall mshr miss latency
system.cpu.dcache.overall_avg_mshr_miss_latency::total 32071.009296                       # average overall mshr miss latency
system.cpu.dcache.replacements                 771226                       # number of replacements
system.cpu.dcache.ReadReq_hits::.cpu.data     44933367                       # number of ReadReq hits
system.cpu.dcache.ReadReq_hits::total        44933367                       # number of ReadReq hits
system.cpu.dcache.ReadReq_misses::.cpu.data       458331                       # number of ReadReq misses
system.cpu.dcache.ReadReq_misses::total        458331                       # number of ReadReq misses
system.cpu.dcache.ReadReq_miss_latency::.cpu.data  10611518000                       # number of ReadReq miss cycles
system.cpu.dcache.ReadReq_miss_latency::total  10611518000                       # number of ReadReq miss cycles
system.cpu.dcache.ReadReq_accesses::.cpu.data     45391698                       # number of ReadReq accesses(hits+misses)
system.cpu.dcache.ReadReq_accesses::total     45391698                       # number of ReadReq accesses(hits+misses)
system.cpu.dcache.ReadReq_miss_rate::.cpu.data     0.010097                       # miss rate for ReadReq accesses
system.cpu.dcache.ReadReq_miss_rate::total     0.010097                       # miss rate for ReadReq accesses
system.cpu.dcache.ReadReq_avg_miss_latency::.cpu.data 23152.520776                       # average ReadReq miss latency
system.cpu.dcache.ReadReq_avg_miss_latency::total 23152.520776                       # average ReadReq miss latency
system.cpu.dcache.ReadReq_mshr_hits::.cpu.data           46                       # number of ReadReq MSHR hits
system.cpu.dcache.ReadReq_mshr_hits::total           46                       # number of ReadReq MSHR hits
system.cpu.dcache.ReadReq_mshr_misses::.cpu.data       458285                       # number of ReadReq MSHR misses
system.cpu.dcache.ReadReq_mshr_misses::total       458285                       # number of ReadReq MSHR misses
system.cpu.dcache.ReadReq_mshr_miss_latency::.cpu.data  10149832500                       # number of ReadReq MSHR miss cycles
system.cpu.dcache.ReadReq_mshr_miss_latency::total  10149832500                       # number of ReadReq MSHR miss cycles
system.cpu.dcache.ReadReq_mshr_miss_rate::.cpu.data     0.010096                       # mshr miss rate for ReadReq accesses
system.cpu.dcache.ReadReq_mshr_miss_rate::total     0.010096                       # mshr miss rate for ReadReq accesses
system.cpu.dcache.ReadReq_avg_mshr_miss_latency::.cpu.data 22147.424638                       # average ReadReq mshr miss latency
system.cpu.dcache.ReadReq_avg_mshr_miss_latency::total 22147.424638                       # average ReadReq mshr miss latency
system.cpu.dcache.WriteReq_hits::.cpu.data     12579168                       # number of WriteReq hits
system.cpu.dcache.WriteReq_hits::total       12579168                       # number of WriteReq hits
system.cpu.dcache.WriteReq_misses::.cpu.data       377059                       # number of WriteReq misses
system.cpu.dcache.WriteReq_misses::total       377059                       # number of WriteReq misses
system.cpu.dcache.WriteReq_miss_latency::.cpu.data  16659564500                       # number of WriteReq miss cycles
system.cpu.dcache.WriteReq_miss_latency::total  16659564500                       # number of WriteReq miss cycles
system.cpu.dcache.WriteReq_accesses::.cpu.data     12956227                       # number of WriteReq accesses(hits+misses)
system.cpu.dcache.WriteReq_accesses::total     12956227                       # number of WriteReq accesses(hits+misses)
system.cpu.dcache.WriteReq_miss_rate::.cpu.data     0.029103                       # miss rate for WriteReq accesses
system.cpu.dcache.WriteReq_miss_rate::total     0.029103                       # miss rate for WriteReq accesses
system.cpu.dcache.WriteReq_avg_miss_latency::.cpu.data 44182.911693                       # average WriteReq miss latency
system.cpu.dcache.WriteReq_avg_miss_latency::total 44182.911693                       # average WriteReq miss latency
system.cpu.dcache.WriteReq_mshr_hits::.cpu.data        63104                       # number of WriteReq MSHR hits
system.cpu.dcache.WriteReq_mshr_hits::total        63104                       # number of WriteReq MSHR hits
system.cpu.dcache.WriteReq_mshr_misses::.cpu.data       313955                       # number of WriteReq MSHR misses
system.cpu.dcache.WriteReq_mshr_misses::total       313955                       # number of WriteReq MSHR misses
system.cpu.dcache.WriteReq_mshr_miss_latency::.cpu.data  14616091000                       # number of WriteReq MSHR miss cycles
system.cpu.dcache.WriteReq_mshr_miss_latency::total  14616091000                       # number of WriteReq MSHR miss cycles
system.cpu.dcache.WriteReq_mshr_miss_rate::.cpu.data     0.024232                       # mshr miss rate for WriteReq accesses
system.cpu.dcache.WriteReq_mshr_miss_rate::total     0.024232                       # mshr miss rate for WriteReq accesses
system.cpu.dcache.WriteReq_avg_mshr_miss_latency::.cpu.data 46554.732366                       # average WriteReq mshr miss latency
system.cpu.dcache.WriteReq_avg_mshr_miss_latency::total 46554.732366                       # average WriteReq mshr miss latency
system.cpu.dcache.SoftPFReq_hits::.cpu.data           14                       # number of SoftPFReq hits
system.cpu.dcache.SoftPFReq_hits::total            14                       # number of SoftPFReq hits
system.cpu.dcache.SoftPFReq_misses::.cpu.data           16                       # number of SoftPFReq misses
system.cpu.dcache.SoftPFReq_misses::total           16                       # number of SoftPFReq misses
system.cpu.dcache.SoftPFReq_accesses::.cpu.data           30                       # number of SoftPFReq accesses(hits+misses)
system.cpu.dcache.SoftPFReq_accesses::total           30                       # number of SoftPFReq accesses(hits+misses)
system.cpu.dcache.SoftPFReq_miss_rate::.cpu.data     0.533333                       # miss rate for SoftPFReq accesses
system.cpu.dcache.SoftPFReq_miss_rate::total     0.533333                       # miss rate for SoftPFReq accesses
system.cpu.dcache.SoftPFReq_mshr_misses::.cpu.data           11                       # number of SoftPFReq MSHR misses
system.cpu.dcache.SoftPFReq_mshr_misses::total           11                       # number of SoftPFReq MSHR misses
system.cpu.dcache.SoftPFReq_mshr_miss_latency::.cpu.data       945500                       # number of SoftPFReq MSHR miss cycles
system.cpu.dcache.SoftPFReq_mshr_miss_latency::total       945500                       # number of SoftPFReq MSHR miss cycles
system.cpu.dcache.SoftPFReq_mshr_miss_rate::.cpu.data     0.366667                       # mshr miss rate for SoftPFReq accesses
system.cpu.dcache.SoftPFReq_mshr_miss_rate::total     0.366667                       # mshr miss rate for SoftPFReq accesses
system.cpu.dcache.SoftPFReq_avg_mshr_miss_latency::.cpu.data 85954.545455                       # average SoftPFReq mshr miss latency
system.cpu.dcache.SoftPFReq_avg_mshr_miss_latency::total 85954.545455                       # average SoftPFReq mshr miss latency
system.cpu.dcache.LoadLockedReq_hits::.cpu.data           61                       # number of LoadLockedReq hits
system.cpu.dcache.LoadLockedReq_hits::total           61                       # number of LoadLockedReq hits
system.cpu.dcache.LoadLockedReq_misses::.cpu.data            1                       # number of LoadLockedReq misses
system.cpu.dcache.LoadLockedReq_misses::total            1                       # number of LoadLockedReq misses
system.cpu.dcache.LoadLockedReq_miss_latency::.cpu.data        72000                       # number of LoadLockedReq miss cycles
system.cpu.dcache.LoadLockedReq_miss_latency::total        72000                       # number of LoadLockedReq miss cycles
system.cpu.dcache.LoadLockedReq_accesses::.cpu.data           62                       # number of LoadLockedReq accesses(hits+misses)
system.cpu.dcache.LoadLockedReq_accesses::total           62                       # number of LoadLockedReq accesses(hits+misses)
system.cpu.dcache.LoadLockedReq_miss_rate::.cpu.data     0.016129                       # miss rate for LoadLockedReq accesses
system.cpu.dcache.LoadLockedReq_miss_rate::total     0.016129                       # miss rate for LoadLockedReq accesses
system.cpu.dcache.LoadLockedReq_avg_miss_latency::.cpu.data        72000                       # average LoadLockedReq miss latency
system.cpu.dcache.LoadLockedReq_avg_miss_latency::total        72000                       # average LoadLockedReq miss latency
system.cpu.dcache.LoadLockedReq_mshr_misses::.cpu.data            1                       # number of LoadLockedReq MSHR misses
system.cpu.dcache.LoadLockedReq_mshr_misses::total            1                       # number of LoadLockedReq MSHR misses
system.cpu.dcache.LoadLockedReq_mshr_miss_latency::.cpu.data        71000                       # number of LoadLockedReq MSHR miss cycles
system.cpu.dcache.LoadLockedReq_mshr_miss_latency::total        71000                       # number of LoadLockedReq MSHR miss cycles
system.cpu.dcache.LoadLockedReq_mshr_miss_rate::.cpu.data     0.016129                       # mshr miss rate for LoadLockedReq accesses
system.cpu.dcache.LoadLockedReq_mshr_miss_rate::total     0.016129                       # mshr miss rate for LoadLockedReq accesses
system.cpu.dcache.LoadLockedReq_avg_mshr_miss_latency::.cpu.data        71000                       # average LoadLockedReq mshr miss latency
system.cpu.dcache.LoadLockedReq_avg_mshr_miss_latency::total        71000                       # average LoadLockedReq mshr miss latency
system.cpu.dcache.StoreCondReq_hits::.cpu.data           62                       # number of StoreCondReq hits
system.cpu.dcache.StoreCondReq_hits::total           62                       # number of StoreCondReq hits
system.cpu.dcache.StoreCondReq_accesses::.cpu.data           62                       # number of StoreCondReq accesses(hits+misses)
system.cpu.dcache.StoreCondReq_accesses::total           62                       # number of StoreCondReq accesses(hits+misses)
system.cpu.dcache.power_state.pwrStateResidencyTicks::UNDEFINED  84118074000                       # Cumulative time (in ticks) in various power states
system.cpu.dcache.tags.tagsinuse          1007.845938                       # Cycle average of tags in use
system.cpu.dcache.tags.total_refs            58284922                       # Total number of references to valid blocks.
system.cpu.dcache.tags.sampled_refs            772250                       # Sample count of references to valid blocks.
system.cpu.dcache.tags.avg_refs             75.474163                       # Average number of references to valid blocks.
system.cpu.dcache.tags.warmup_cycle            176500                       # Cycle when the warmup percentage was hit.
system.cpu.dcache.tags.occ_blocks::.cpu.data  1007.845938                       # Average occupied blocks per requestor
system.cpu.dcache.tags.occ_percent::.cpu.data     0.984225                       # Average percentage of cache occupancy
system.cpu.dcache.tags.occ_percent::total     0.984225                       # Average percentage of cache occupancy
system.cpu.dcache.tags.occ_task_id_blocks::1024         1024                       # Occupied blocks per task id
system.cpu.dcache.tags.age_task_id_blocks_1024::0          393                       # Occupied blocks per task id
system.cpu.dcache.tags.age_task_id_blocks_1024::1          304                       # Occupied blocks per task id
system.cpu.dcache.tags.age_task_id_blocks_1024::2          324                       # Occupied blocks per task id
system.cpu.dcache.tags.age_task_id_blocks_1024::3            1                       # Occupied blocks per task id
system.cpu.dcache.tags.age_task_id_blocks_1024::4            2                       # Occupied blocks per task id
system.cpu.dcache.tags.occ_task_id_percent::1024            1                       # Percentage of cache occupancy per task id
system.cpu.dcache.tags.tag_accesses         117468408                       # Number of tag accesses
system.cpu.dcache.tags.data_accesses        117468408                       # Number of data accesses
system.cpu.dcache.tags.power_state.pwrStateResidencyTicks::UNDEFINED  84118074000                       # Cumulative time (in ticks) in various power states
system.cpu.dtb.instHits                             0                       # ITB inst hits
system.cpu.dtb.instMisses                           0                       # ITB inst misses
system.cpu.dtb.readHits                             0                       # DTB read hits
system.cpu.dtb.readMisses                           0                       # DTB read misses
system.cpu.dtb.writeHits                            0                       # DTB write hits
system.cpu.dtb.writeMisses                          0                       # DTB write misses
system.cpu.dtb.inserts                              0                       # Number of times an entry is inserted into the TLB
system.cpu.dtb.flushTlb                             0                       # Number of times complete TLB was flushed
system.cpu.dtb.flushTlbMva                          0                       # Number of times TLB was flushed by MVA
system.cpu.dtb.flushTlbMvaAsid                      0                       # Number of times TLB was flushed by MVA & ASID
system.cpu.dtb.flushTlbAsid                         0                       # Number of times TLB was flushed by ASID
system.cpu.dtb.flushedEntries                       0                       # Number of entries that have been flushed from TLB
system.cpu.dtb.alignFaults                          0                       # Number of TLB faults due to alignment restrictions
system.cpu.dtb.prefetchFaults                       0                       # Number of TLB faults due to prefetch
system.cpu.dtb.domainFaults                         0                       # Number of TLB faults due to domain restrictions
system.cpu.dtb.permsFaults                          0                       # Number of TLB faults due to permissions restrictions
system.cpu.dtb.readAccesses                         0                       # DTB read accesses
system.cpu.dtb.writeAccesses                        0                       # DTB write accesses
system.cpu.dtb.instAccesses                         0                       # ITB inst accesses
system.cpu.dtb.hits                                 0                       # Total TLB (inst and data) hits
system.cpu.dtb.misses                               0                       # Total TLB (inst and data) misses
system.cpu.dtb.accesses                             0                       # Total TLB (inst and data) accesses
system.cpu.dtb.stage2_mmu.stage2_tlb.instHits            0                       # ITB inst hits
system.cpu.dtb.stage2_mmu.stage2_tlb.instMisses            0                       # ITB inst misses
system.cpu.dtb.stage2_mmu.stage2_tlb.readHits            0                       # DTB read hits
system.cpu.dtb.stage2_mmu.stage2_tlb.readMisses            0                       # DTB read misses
system.cpu.dtb.stage2_mmu.stage2_tlb.writeHits            0                       # DTB write hits
system.cpu.dtb.stage2_mmu.stage2_tlb.writeMisses            0                       # DTB write misses
system.cpu.dtb.stage2_mmu.stage2_tlb.inserts            0                       # Number of times an entry is inserted into the TLB
system.cpu.dtb.stage2_mmu.stage2_tlb.flushTlb            0                       # Number of times complete TLB was flushed
system.cpu.dtb.stage2_mmu.stage2_tlb.flushTlbMva            0                       # Number of times TLB was flushed by MVA
system.cpu.dtb.stage2_mmu.stage2_tlb.flushTlbMvaAsid            0                       # Number of times TLB was flushed by MVA & ASID
system.cpu.dtb.stage2_mmu.stage2_tlb.flushTlbAsid            0                       # Number of times TLB was flushed by ASID
system.cpu.dtb.stage2_mmu.stage2_tlb.flushedEntries            0                       # Number of entries that have been flushed from TLB
system.cpu.dtb.stage2_mmu.stage2_tlb.alignFaults            0                       # Number of TLB faults due to alignment restrictions
system.cpu.dtb.stage2_mmu.stage2_tlb.prefetchFaults            0                       # Number of TLB faults due to prefetch
system.cpu.dtb.stage2_mmu.stage2_tlb.domainFaults            0                       # Number of TLB faults due to domain restrictions
system.cpu.dtb.stage2_mmu.stage2_tlb.permsFaults            0                       # Number of TLB faults due to permissions restrictions
system.cpu.dtb.stage2_mmu.stage2_tlb.readAccesses            0                       # DTB read accesses
system.cpu.dtb.stage2_mmu.stage2_tlb.writeAccesses            0                       # DTB write accesses
system.cpu.dtb.stage2_mmu.stage2_tlb.instAccesses            0                       # ITB inst accesses
system.cpu.dtb.stage2_mmu.stage2_tlb.hits            0                       # Total TLB (inst and data) hits
system.cpu.dtb.stage2_mmu.stage2_tlb.misses            0                       # Total TLB (inst and data) misses
system.cpu.dtb.stage2_mmu.stage2_tlb.accesses            0                       # Total TLB (inst and data) accesses
system.cpu.dtb.stage2_mmu.stage2_tlb.walker.walks            0                       # Table walker walks requested
system.cpu.dtb.stage2_mmu.stage2_tlb.walker.requestOrigin_Requested::Data            0                       # Table walker requests started/completed, data/inst
system.cpu.dtb.stage2_mmu.stage2_tlb.walker.requestOrigin_Requested::Inst            0                       # Table walker requests started/completed, data/inst
system.cpu.dtb.stage2_mmu.stage2_tlb.walker.requestOrigin_Requested::total            0                       # Table walker requests started/completed, data/inst
system.cpu.dtb.stage2_mmu.stage2_tlb.walker.requestOrigin_Completed::Data            0                       # Table walker requests started/completed, data/inst
system.cpu.dtb.stage2_mmu.stage2_tlb.walker.requestOrigin_Completed::Inst            0                       # Table walker requests started/completed, data/inst
system.cpu.dtb.stage2_mmu.stage2_tlb.walker.requestOrigin_Completed::total            0                       # Table walker requests started/completed, data/inst
system.cpu.dtb.stage2_mmu.stage2_tlb.walker.requestOrigin::total            0                       # Table walker requests started/completed, data/inst
system.cpu.dtb.stage2_mmu.stage2_tlb.walker.power_state.pwrStateResidencyTicks::UNDEFINED  84118074000                       # Cumulative time (in ticks) in various power states
system.cpu.dtb.walker.walks                         0                       # Table walker walks requested
system.cpu.dtb.walker.requestOrigin_Requested::Data            0                       # Table walker requests started/completed, data/inst
system.cpu.dtb.walker.requestOrigin_Requested::Inst            0                       # Table walker requests started/completed, data/inst
system.cpu.dtb.walker.requestOrigin_Requested::total            0                       # Table walker requests started/completed, data/inst
system.cpu.dtb.walker.requestOrigin_Completed::Data            0                       # Table walker requests started/completed, data/inst
system.cpu.dtb.walker.requestOrigin_Completed::Inst            0                       # Table walker requests started/completed, data/inst
system.cpu.dtb.walker.requestOrigin_Completed::total            0                       # Table walker requests started/completed, data/inst
system.cpu.dtb.walker.requestOrigin::total            0                       # Table walker requests started/completed, data/inst
system.cpu.dtb.walker.power_state.pwrStateResidencyTicks::UNDEFINED  84118074000                       # Cumulative time (in ticks) in various power states
system.cpu.fetch2.intInstructions            35331933                       # Number of integer instructions successfully decoded
system.cpu.fetch2.fpInstructions                    0                       # Number of floating point instructions successfully decoded
system.cpu.fetch2.vecInstructions                   0                       # Number of SIMD instructions successfully decoded
system.cpu.fetch2.loadInstructions           49018150                       # Number of memory load instructions successfully decoded
system.cpu.fetch2.storeInstructions          13268723                       # Number of memory store instructions successfully decoded
system.cpu.fetch2.amoInstructions                   0                       # Number of memory atomic instructions successfully decoded
system.cpu.icache.demand_hits::.cpu.inst     18253474                       # number of demand (read+write) hits
system.cpu.icache.demand_hits::total         18253474                       # number of demand (read+write) hits
system.cpu.icache.overall_hits::.cpu.inst     18253474                       # number of overall hits
system.cpu.icache.overall_hits::total        18253474                       # number of overall hits
system.cpu.icache.demand_misses::.cpu.inst          818                       # number of demand (read+write) misses
system.cpu.icache.demand_misses::total            818                       # number of demand (read+write) misses
system.cpu.icache.overall_misses::.cpu.inst          818                       # number of overall misses
system.cpu.icache.overall_misses::total           818                       # number of overall misses
system.cpu.icache.demand_miss_latency::.cpu.inst     64904000                       # number of demand (read+write) miss cycles
system.cpu.icache.demand_miss_latency::total     64904000                       # number of demand (read+write) miss cycles
system.cpu.icache.overall_miss_latency::.cpu.inst     64904000                       # number of overall miss cycles
system.cpu.icache.overall_miss_latency::total     64904000                       # number of overall miss cycles
system.cpu.icache.demand_accesses::.cpu.inst     18254292                       # number of demand (read+write) accesses
system.cpu.icache.demand_accesses::total     18254292                       # number of demand (read+write) accesses
system.cpu.icache.overall_accesses::.cpu.inst     18254292                       # number of overall (read+write) accesses
system.cpu.icache.overall_accesses::total     18254292                       # number of overall (read+write) accesses
system.cpu.icache.demand_miss_rate::.cpu.inst     0.000045                       # miss rate for demand accesses
system.cpu.icache.demand_miss_rate::total     0.000045                       # miss rate for demand accesses
system.cpu.icache.overall_miss_rate::.cpu.inst     0.000045                       # miss rate for overall accesses
system.cpu.icache.overall_miss_rate::total     0.000045                       # miss rate for overall accesses
system.cpu.icache.demand_avg_miss_latency::.cpu.inst 79344.743276                       # average overall miss latency
system.cpu.icache.demand_avg_miss_latency::total 79344.743276                       # average overall miss latency
system.cpu.icache.overall_avg_miss_latency::.cpu.inst 79344.743276                       # average overall miss latency
system.cpu.icache.overall_avg_miss_latency::total 79344.743276                       # average overall miss latency
system.cpu.icache.blocked_cycles::no_mshrs            0                       # number of cycles access was blocked
system.cpu.icache.blocked_cycles::no_targets            0                       # number of cycles access was blocked
system.cpu.icache.blocked::no_mshrs                 0                       # number of cycles access was blocked
system.cpu.icache.blocked::no_targets               0                       # number of cycles access was blocked
system.cpu.icache.avg_blocked_cycles::no_mshrs          nan                       # average number of cycles each access was blocked
system.cpu.icache.avg_blocked_cycles::no_targets          nan                       # average number of cycles each access was blocked
system.cpu.icache.writebacks::.writebacks          306                       # number of writebacks
system.cpu.icache.writebacks::total               306                       # number of writebacks
system.cpu.icache.demand_mshr_misses::.cpu.inst          818                       # number of demand (read+write) MSHR misses
system.cpu.icache.demand_mshr_misses::total          818                       # number of demand (read+write) MSHR misses
system.cpu.icache.overall_mshr_misses::.cpu.inst          818                       # number of overall MSHR misses
system.cpu.icache.overall_mshr_misses::total          818                       # number of overall MSHR misses
system.cpu.icache.demand_mshr_miss_latency::.cpu.inst     64086000                       # number of demand (read+write) MSHR miss cycles
system.cpu.icache.demand_mshr_miss_latency::total     64086000                       # number of demand (read+write) MSHR miss cycles
system.cpu.icache.overall_mshr_miss_latency::.cpu.inst     64086000                       # number of overall MSHR miss cycles
system.cpu.icache.overall_mshr_miss_latency::total     64086000                       # number of overall MSHR miss cycles
system.cpu.icache.demand_mshr_miss_rate::.cpu.inst     0.000045                       # mshr miss rate for demand accesses
system.cpu.icache.demand_mshr_miss_rate::total     0.000045                       # mshr miss rate for demand accesses
system.cpu.icache.overall_mshr_miss_rate::.cpu.inst     0.000045                       # mshr miss rate for overall accesses
system.cpu.icache.overall_mshr_miss_rate::total     0.000045                       # mshr miss rate for overall accesses
system.cpu.icache.demand_avg_mshr_miss_latency::.cpu.inst 78344.743276                       # average overall mshr miss latency
system.cpu.icache.demand_avg_mshr_miss_latency::total 78344.743276                       # average overall mshr miss latency
system.cpu.icache.overall_avg_mshr_miss_latency::.cpu.inst 78344.743276                       # average overall mshr miss latency
system.cpu.icache.overall_avg_mshr_miss_latency::total 78344.743276                       # average overall mshr miss latency
system.cpu.icache.replacements                    306                       # number of replacements
system.cpu.icache.ReadReq_hits::.cpu.inst     18253474                       # number of ReadReq hits
system.cpu.icache.ReadReq_hits::total        18253474                       # number of ReadReq hits
system.cpu.icache.ReadReq_misses::.cpu.inst          818                       # number of ReadReq misses
system.cpu.icache.ReadReq_misses::total           818                       # number of ReadReq misses
system.cpu.icache.ReadReq_miss_latency::.cpu.inst     64904000                       # number of ReadReq miss cycles
system.cpu.icache.ReadReq_miss_latency::total     64904000                       # number of ReadReq miss cycles
system.cpu.icache.ReadReq_accesses::.cpu.inst     18254292                       # number of ReadReq accesses(hits+misses)
system.cpu.icache.ReadReq_accesses::total     18254292                       # number of ReadReq accesses(hits+misses)
system.cpu.icache.ReadReq_miss_rate::.cpu.inst     0.000045                       # miss rate for ReadReq accesses
system.cpu.icache.ReadReq_miss_rate::total     0.000045                       # miss rate for ReadReq accesses
system.cpu.icache.ReadReq_avg_miss_latency::.cpu.inst 79344.743276                       # average ReadReq miss latency
system.cpu.icache.ReadReq_avg_miss_latency::total 79344.743276                       # average ReadReq miss latency
system.cpu.icache.ReadReq_mshr_misses::.cpu.inst          818                       # number of ReadReq MSHR misses
system.cpu.icache.ReadReq_mshr_misses::total          818                       # number of ReadReq MSHR misses
system.cpu.icache.ReadReq_mshr_miss_latency::.cpu.inst     64086000                       # number of ReadReq MSHR miss cycles
system.cpu.icache.ReadReq_mshr_miss_latency::total     64086000                       # number of ReadReq MSHR miss cycles
system.cpu.icache.ReadReq_mshr_miss_rate::.cpu.inst     0.000045                       # mshr miss rate for ReadReq accesses
system.cpu.icache.ReadReq_mshr_miss_rate::total     0.000045                       # mshr miss rate for ReadReq accesses
system.cpu.icache.ReadReq_avg_mshr_miss_latency::.cpu.inst 78344.743276                       # average ReadReq mshr miss latency
system.cpu.icache.ReadReq_avg_mshr_miss_latency::total 78344.743276                       # average ReadReq mshr miss latency
system.cpu.icache.power_state.pwrStateResidencyTicks::UNDEFINED  84118074000                       # Cumulative time (in ticks) in various power states
system.cpu.icache.tags.tagsinuse           503.430243                       # Cycle average of tags in use
system.cpu.icache.tags.total_refs            18254292                       # Total number of references to valid blocks.
system.cpu.icache.tags.sampled_refs               818                       # Sample count of references to valid blocks.
system.cpu.icache.tags.avg_refs          22315.760391                       # Average number of references to valid blocks.
system.cpu.icache.tags.warmup_cycle             87500                       # Cycle when the warmup percentage was hit.
system.cpu.icache.tags.occ_blocks::.cpu.inst   503.430243                       # Average occupied blocks per requestor
system.cpu.icache.tags.occ_percent::.cpu.inst     0.983262                       # Average percentage of cache occupancy
system.cpu.icache.tags.occ_percent::total     0.983262                       # Average percentage of cache occupancy
system.cpu.icache.tags.occ_task_id_blocks::1024          512                       # Occupied blocks per task id
system.cpu.icache.tags.age_task_id_blocks_1024::4          512                       # Occupied blocks per task id
system.cpu.icache.tags.occ_task_id_percent::1024            1                       # Percentage of cache occupancy per task id
system.cpu.icache.tags.tag_accesses         146035154                       # Number of tag accesses
system.cpu.icache.tags.data_accesses        146035154                       # Number of data accesses
system.cpu.icache.tags.power_state.pwrStateResidencyTicks::UNDEFINED  84118074000                       # Cumulative time (in ticks) in various power states
system.cpu.itb.instHits                             0                       # ITB inst hits
system.cpu.itb.instMisses                           0                       # ITB inst misses
system.cpu.itb.readHits                             0                       # DTB read hits
system.cpu.itb.readMisses                           0                       # DTB read misses
system.cpu.itb.writeHits                            0                       # DTB write hits
system.cpu.itb.writeMisses                          0                       # DTB write misses
system.cpu.itb.inserts                              0                       # Number of times an entry is inserted into the TLB
system.cpu.itb.flushTlb                             0                       # Number of times complete TLB was flushed
system.cpu.itb.flushTlbMva                          0                       # Number of times TLB was flushed by MVA
system.cpu.itb.flushTlbMvaAsid                      0                       # Number of times TLB was flushed by MVA & ASID
system.cpu.itb.flushTlbAsid                         0                       # Number of times TLB was flushed by ASID
system.cpu.itb.flushedEntries                       0                       # Number of entries that have been flushed from TLB
system.cpu.itb.alignFaults                          0                       # Number of TLB faults due to alignment restrictions
system.cpu.itb.prefetchFaults                       0                       # Number of TLB faults due to prefetch
system.cpu.itb.domainFaults                         0                       # Number of TLB faults due to domain restrictions
system.cpu.itb.permsFaults                          0                       # Number of TLB faults due to permissions restrictions
system.cpu.itb.readAccesses                         0                       # DTB read accesses
system.cpu.itb.writeAccesses                        0                       # DTB write accesses
system.cpu.itb.instAccesses                         0                       # ITB inst accesses
system.cpu.itb.hits                                 0                       # Total TLB (inst and data) hits
system.cpu.itb.misses                               0                       # Total TLB (inst and data) misses
system.cpu.itb.accesses                             0                       # Total TLB (inst and data) accesses
system.cpu.itb.stage2_mmu.stage2_tlb.instHits            0                       # ITB inst hits
system.cpu.itb.stage2_mmu.stage2_tlb.instMisses            0                       # ITB inst misses
system.cpu.itb.stage2_mmu.stage2_tlb.readHits            0                       # DTB read hits
system.cpu.itb.stage2_mmu.stage2_tlb.readMisses            0                       # DTB read misses
system.cpu.itb.stage2_mmu.stage2_tlb.writeHits            0                       # DTB write hits
system.cpu.itb.stage2_mmu.stage2_tlb.writeMisses            0                       # DTB write misses
system.cpu.itb.stage2_mmu.stage2_tlb.inserts            0                       # Number of times an entry is inserted into the TLB
system.cpu.itb.stage2_mmu.stage2_tlb.flushTlb            0                       # Number of times complete TLB was flushed
system.cpu.itb.stage2_mmu.stage2_tlb.flushTlbMva            0                       # Number of times TLB was flushed by MVA
system.cpu.itb.stage2_mmu.stage2_tlb.flushTlbMvaAsid            0                       # Number of times TLB was flushed by MVA & ASID
system.cpu.itb.stage2_mmu.stage2_tlb.flushTlbAsid            0                       # Number of times TLB was flushed by ASID
system.cpu.itb.stage2_mmu.stage2_tlb.flushedEntries            0                       # Number of entries that have been flushed from TLB
system.cpu.itb.stage2_mmu.stage2_tlb.alignFaults            0                       # Number of TLB faults due to alignment restrictions
system.cpu.itb.stage2_mmu.stage2_tlb.prefetchFaults            0                       # Number of TLB faults due to prefetch
system.cpu.itb.stage2_mmu.stage2_tlb.domainFaults            0                       # Number of TLB faults due to domain restrictions
system.cpu.itb.stage2_mmu.stage2_tlb.permsFaults            0                       # Number of TLB faults due to permissions restrictions
system.cpu.itb.stage2_mmu.stage2_tlb.readAccesses            0                       # DTB read accesses
system.cpu.itb.stage2_mmu.stage2_tlb.writeAccesses            0                       # DTB write accesses
system.cpu.itb.stage2_mmu.stage2_tlb.instAccesses            0                       # ITB inst accesses
system.cpu.itb.stage2_mmu.stage2_tlb.hits            0                       # Total TLB (inst and data) hits
system.cpu.itb.stage2_mmu.stage2_tlb.misses            0                       # Total TLB (inst and data) misses
system.cpu.itb.stage2_mmu.stage2_tlb.accesses            0                       # Total TLB (inst and data) accesses
system.cpu.itb.stage2_mmu.stage2_tlb.walker.walks            0                       # Table walker walks requested
system.cpu.itb.stage2_mmu.stage2_tlb.walker.requestOrigin_Requested::Data            0                       # Table walker requests started/completed, data/inst
system.cpu.itb.stage2_mmu.stage2_tlb.walker.requestOrigin_Requested::Inst            0                       # Table walker requests started/completed, data/inst
system.cpu.itb.stage2_mmu.stage2_tlb.walker.requestOrigin_Requested::total            0                       # Table walker requests started/completed, data/inst
system.cpu.itb.stage2_mmu.stage2_tlb.walker.requestOrigin_Completed::Data            0                       # Table walker requests started/completed, data/inst
system.cpu.itb.stage2_mmu.stage2_tlb.walker.requestOrigin_Completed::Inst            0                       # Table walker requests started/completed, data/inst
system.cpu.itb.stage2_mmu.stage2_tlb.walker.requestOrigin_Completed::total            0                       # Table walker requests started/completed, data/inst
system.cpu.itb.stage2_mmu.stage2_tlb.walker.requestOrigin::total            0                       # Table walker requests started/completed, data/inst
system.cpu.itb.stage2_mmu.stage2_tlb.walker.power_state.pwrStateResidencyTicks::UNDEFINED  84118074000                       # Cumulative time (in ticks) in various power states
system.cpu.itb.walker.walks                         0                       # Table walker walks requested
system.cpu.itb.walker.requestOrigin_Requested::Data            0                       # Table walker requests started/completed, data/inst
system.cpu.itb.walker.requestOrigin_Requested::Inst            0                       # Table walker requests started/completed, data/inst
system.cpu.itb.walker.requestOrigin_Requested::total            0                       # Table walker requests started/completed, data/inst
system.cpu.itb.walker.requestOrigin_Completed::Data            0                       # Table walker requests started/completed, data/inst
system.cpu.itb.walker.requestOrigin_Completed::Inst            0                       # Table walker requests started/completed, data/inst
system.cpu.itb.walker.requestOrigin_Completed::total            0                       # Table walker requests started/completed, data/inst
system.cpu.itb.walker.requestOrigin::total            0                       # Table walker requests started/completed, data/inst
system.cpu.itb.walker.power_state.pwrStateResidencyTicks::UNDEFINED  84118074000                       # Cumulative time (in ticks) in various power states
system.cpu.power_state.pwrStateResidencyTicks::ON  84118074000                       # Cumulative time (in ticks) in various power states
system.cpu.thread_0.numInsts                100000000                       # Number of Instructions committed
system.cpu.thread_0.numOps                  100245691                       # Number of Ops committed
system.cpu.thread_0.numMemRefs                      0                       # Number of Memory References
system.cpu_clk_domain.clock                       500                       # Clock period in ticks
system.cpu_voltage_domain.voltage                   1                       # Voltage in Volts
system.l2.demand_hits::.cpu.inst                    5                       # number of demand (read+write) hits
system.l2.demand_hits::.cpu.data               562759                       # number of demand (read+write) hits
system.l2.demand_hits::total                   562764                       # number of demand (read+write) hits
system.l2.overall_hits::.cpu.inst                   5                       # number of overall hits
system.l2.overall_hits::.cpu.data              562759                       # number of overall hits
system.l2.overall_hits::total                  562764                       # number of overall hits
system.l2.demand_misses::.cpu.inst                813                       # number of demand (read+write) misses
system.l2.demand_misses::.cpu.data             209492                       # number of demand (read+write) misses
system.l2.demand_misses::total                 210305                       # number of demand (read+write) misses
system.l2.overall_misses::.cpu.inst               813                       # number of overall misses
system.l2.overall_misses::.cpu.data            209492                       # number of overall misses
system.l2.overall_misses::total                210305                       # number of overall misses
system.l2.demand_miss_latency::.cpu.inst     62801500                       # number of demand (read+write) miss cycles
system.l2.demand_miss_latency::.cpu.data  17684223500                       # number of demand (read+write) miss cycles
system.l2.demand_miss_latency::total      17747025000                       # number of demand (read+write) miss cycles
system.l2.overall_miss_latency::.cpu.inst     62801500                       # number of overall miss cycles
system.l2.overall_miss_latency::.cpu.data  17684223500                       # number of overall miss cycles
system.l2.overall_miss_latency::total     17747025000                       # number of overall miss cycles
system.l2.demand_accesses::.cpu.inst              818                       # number of demand (read+write) accesses
system.l2.demand_accesses::.cpu.data           772251                       # number of demand (read+write) accesses
system.l2.demand_accesses::total               773069                       # number of demand (read+write) accesses
system.l2.overall_accesses::.cpu.inst             818                       # number of overall (read+write) accesses
system.l2.overall_accesses::.cpu.data          772251                       # number of overall (read+write) accesses
system.l2.overall_accesses::total              773069                       # number of overall (read+write) accesses
system.l2.demand_miss_rate::.cpu.inst        0.993888                       # miss rate for demand accesses
system.l2.demand_miss_rate::.cpu.data        0.271274                       # miss rate for demand accesses
system.l2.demand_miss_rate::total            0.272039                       # miss rate for demand accesses
system.l2.overall_miss_rate::.cpu.inst       0.993888                       # miss rate for overall accesses
system.l2.overall_miss_rate::.cpu.data       0.271274                       # miss rate for overall accesses
system.l2.overall_miss_rate::total           0.272039                       # miss rate for overall accesses
system.l2.demand_avg_miss_latency::.cpu.inst 77246.617466                       # average overall miss latency
system.l2.demand_avg_miss_latency::.cpu.data 84414.791496                       # average overall miss latency
system.l2.demand_avg_miss_latency::total 84387.080669                       # average overall miss latency
system.l2.overall_avg_miss_latency::.cpu.inst 77246.617466                       # average overall miss latency
system.l2.overall_avg_miss_latency::.cpu.data 84414.791496                       # average overall miss latency
system.l2.overall_avg_miss_latency::total 84387.080669                       # average overall miss latency
system.l2.blocked_cycles::no_mshrs                  0                       # number of cycles access was blocked
system.l2.blocked_cycles::no_targets                0                       # number of cycles access was blocked
system.l2.blocked::no_mshrs                         0                       # number of cycles access was blocked
system.l2.blocked::no_targets                       0                       # number of cycles access was blocked
system.l2.avg_blocked_cycles::no_mshrs            nan                       # average number of cycles each access was blocked
system.l2.avg_blocked_cycles::no_targets          nan                       # average number of cycles each access was blocked
system.l2.writebacks::.writebacks              118955                       # number of writebacks
system.l2.writebacks::total                    118955                       # number of writebacks
system.l2.demand_mshr_hits::.cpu.data               2                       # number of demand (read+write) MSHR hits
system.l2.demand_mshr_hits::total                   2                       # number of demand (read+write) MSHR hits
system.l2.overall_mshr_hits::.cpu.data              2                       # number of overall MSHR hits
system.l2.overall_mshr_hits::total                  2                       # number of overall MSHR hits
system.l2.demand_mshr_misses::.cpu.inst           813                       # number of demand (read+write) MSHR misses
system.l2.demand_mshr_misses::.cpu.data        209490                       # number of demand (read+write) MSHR misses
system.l2.demand_mshr_misses::total            210303                       # number of demand (read+write) MSHR misses
system.l2.overall_mshr_misses::.cpu.inst          813                       # number of overall MSHR misses
system.l2.overall_mshr_misses::.cpu.data       209490                       # number of overall MSHR misses
system.l2.overall_mshr_misses::total           210303                       # number of overall MSHR misses
system.l2.demand_mshr_miss_latency::.cpu.inst     54671500                       # number of demand (read+write) MSHR miss cycles
system.l2.demand_mshr_miss_latency::.cpu.data  15589192000                       # number of demand (read+write) MSHR miss cycles
system.l2.demand_mshr_miss_latency::total  15643863500                       # number of demand (read+write) MSHR miss cycles
system.l2.overall_mshr_miss_latency::.cpu.inst     54671500                       # number of overall MSHR miss cycles
system.l2.overall_mshr_miss_latency::.cpu.data  15589192000                       # number of overall MSHR miss cycles
system.l2.overall_mshr_miss_latency::total  15643863500                       # number of overall MSHR miss cycles
system.l2.demand_mshr_miss_rate::.cpu.inst     0.993888                       # mshr miss rate for demand accesses
system.l2.demand_mshr_miss_rate::.cpu.data     0.271272                       # mshr miss rate for demand accesses
system.l2.demand_mshr_miss_rate::total       0.272037                       # mshr miss rate for demand accesses
system.l2.overall_mshr_miss_rate::.cpu.inst     0.993888                       # mshr miss rate for overall accesses
system.l2.overall_mshr_miss_rate::.cpu.data     0.271272                       # mshr miss rate for overall accesses
system.l2.overall_mshr_miss_rate::total      0.272037                       # mshr miss rate for overall accesses
system.l2.demand_avg_mshr_miss_latency::.cpu.inst 67246.617466                       # average overall mshr miss latency
system.l2.demand_avg_mshr_miss_latency::.cpu.data 74414.969688                       # average overall mshr miss latency
system.l2.demand_avg_mshr_miss_latency::total 74387.257909                       # average overall mshr miss latency
system.l2.overall_avg_mshr_miss_latency::.cpu.inst 67246.617466                       # average overall mshr miss latency
system.l2.overall_avg_mshr_miss_latency::.cpu.data 74414.969688                       # average overall mshr miss latency
system.l2.overall_avg_mshr_miss_latency::total 74387.257909                       # average overall mshr miss latency
system.l2.replacements                         177813                       # number of replacements
system.l2.WritebackDirty_hits::.writebacks       667862                       # number of WritebackDirty hits
system.l2.WritebackDirty_hits::total           667862                       # number of WritebackDirty hits
system.l2.WritebackDirty_accesses::.writebacks       667862                       # number of WritebackDirty accesses(hits+misses)
system.l2.WritebackDirty_accesses::total       667862                       # number of WritebackDirty accesses(hits+misses)
system.l2.WritebackClean_hits::.writebacks          304                       # number of WritebackClean hits
system.l2.WritebackClean_hits::total              304                       # number of WritebackClean hits
system.l2.WritebackClean_accesses::.writebacks          304                       # number of WritebackClean accesses(hits+misses)
system.l2.WritebackClean_accesses::total          304                       # number of WritebackClean accesses(hits+misses)
system.l2.ReadExReq_hits::.cpu.data            172428                       # number of ReadExReq hits
system.l2.ReadExReq_hits::total                172428                       # number of ReadExReq hits
system.l2.ReadExReq_misses::.cpu.data          141526                       # number of ReadExReq misses
system.l2.ReadExReq_misses::total              141526                       # number of ReadExReq misses
system.l2.ReadExReq_miss_latency::.cpu.data  12330209500                       # number of ReadExReq miss cycles
system.l2.ReadExReq_miss_latency::total   12330209500                       # number of ReadExReq miss cycles
system.l2.ReadExReq_accesses::.cpu.data        313954                       # number of ReadExReq accesses(hits+misses)
system.l2.ReadExReq_accesses::total            313954                       # number of ReadExReq accesses(hits+misses)
system.l2.ReadExReq_miss_rate::.cpu.data     0.450786                       # miss rate for ReadExReq accesses
system.l2.ReadExReq_miss_rate::total         0.450786                       # miss rate for ReadExReq accesses
system.l2.ReadExReq_avg_miss_latency::.cpu.data 87123.281235                       # average ReadExReq miss latency
system.l2.ReadExReq_avg_miss_latency::total 87123.281235                       # average ReadExReq miss latency
system.l2.ReadExReq_mshr_misses::.cpu.data       141526                       # number of ReadExReq MSHR misses
system.l2.ReadExReq_mshr_misses::total         141526                       # number of ReadExReq MSHR misses
system.l2.ReadExReq_mshr_miss_latency::.cpu.data  10914949500                       # number of ReadExReq MSHR miss cycles
system.l2.ReadExReq_mshr_miss_latency::total  10914949500                       # number of ReadExReq MSHR miss cycles
system.l2.ReadExReq_mshr_miss_rate::.cpu.data     0.450786                       # mshr miss rate for ReadExReq accesses
system.l2.ReadExReq_mshr_miss_rate::total     0.450786                       # mshr miss rate for ReadExReq accesses
system.l2.ReadExReq_avg_mshr_miss_latency::.cpu.data 77123.281235                       # average ReadExReq mshr miss latency
system.l2.ReadExReq_avg_mshr_miss_latency::total 77123.281235                       # average ReadExReq mshr miss latency
system.l2.ReadCleanReq_hits::.cpu.inst              5                       # number of ReadCleanReq hits
system.l2.ReadCleanReq_hits::total                  5                       # number of ReadCleanReq hits
system.l2.ReadCleanReq_misses::.cpu.inst          813                       # number of ReadCleanReq misses
system.l2.ReadCleanReq_misses::total              813                       # number of ReadCleanReq misses
system.l2.ReadCleanReq_miss_latency::.cpu.inst     62801500                       # number of ReadCleanReq miss cycles
system.l2.ReadCleanReq_miss_latency::total     62801500                       # number of ReadCleanReq miss cycles
system.l2.ReadCleanReq_accesses::.cpu.inst          818                       # number of ReadCleanReq accesses(hits+misses)
system.l2.ReadCleanReq_accesses::total            818                       # number of ReadCleanReq accesses(hits+misses)
system.l2.ReadCleanReq_miss_rate::.cpu.inst     0.993888                       # miss rate for ReadCleanReq accesses
system.l2.ReadCleanReq_miss_rate::total      0.993888                       # miss rate for ReadCleanReq accesses
system.l2.ReadCleanReq_avg_miss_latency::.cpu.inst 77246.617466                       # average ReadCleanReq miss latency
system.l2.ReadCleanReq_avg_miss_latency::total 77246.617466                       # average ReadCleanReq miss latency
system.l2.ReadCleanReq_mshr_misses::.cpu.inst          813                       # number of ReadCleanReq MSHR misses
system.l2.ReadCleanReq_mshr_misses::total          813                       # number of ReadCleanReq MSHR misses
system.l2.ReadCleanReq_mshr_miss_latency::.cpu.inst     54671500                       # number of ReadCleanReq MSHR miss cycles
system.l2.ReadCleanReq_mshr_miss_latency::total     54671500                       # number of ReadCleanReq MSHR miss cycles
system.l2.ReadCleanReq_mshr_miss_rate::.cpu.inst     0.993888                       # mshr miss rate for ReadCleanReq accesses
system.l2.ReadCleanReq_mshr_miss_rate::total     0.993888                       # mshr miss rate for ReadCleanReq accesses
system.l2.ReadCleanReq_avg_mshr_miss_latency::.cpu.inst 67246.617466                       # average ReadCleanReq mshr miss latency
system.l2.ReadCleanReq_avg_mshr_miss_latency::total 67246.617466                       # average ReadCleanReq mshr miss latency
system.l2.ReadSharedReq_hits::.cpu.data        390331                       # number of ReadSharedReq hits
system.l2.ReadSharedReq_hits::total            390331                       # number of ReadSharedReq hits
system.l2.ReadSharedReq_misses::.cpu.data        67966                       # number of ReadSharedReq misses
system.l2.ReadSharedReq_misses::total           67966                       # number of ReadSharedReq misses
system.l2.ReadSharedReq_miss_latency::.cpu.data   5354014000                       # number of ReadSharedReq miss cycles
system.l2.ReadSharedReq_miss_latency::total   5354014000                       # number of ReadSharedReq miss cycles
system.l2.ReadSharedReq_accesses::.cpu.data       458297                       # number of ReadSharedReq accesses(hits+misses)
system.l2.ReadSharedReq_accesses::total        458297                       # number of ReadSharedReq accesses(hits+misses)
system.l2.ReadSharedReq_miss_rate::.cpu.data     0.148301                       # miss rate for ReadSharedReq accesses
system.l2.ReadSharedReq_miss_rate::total     0.148301                       # miss rate for ReadSharedReq accesses
system.l2.ReadSharedReq_avg_miss_latency::.cpu.data 78774.887444                       # average ReadSharedReq miss latency
system.l2.ReadSharedReq_avg_miss_latency::total 78774.887444                       # average ReadSharedReq miss latency
system.l2.ReadSharedReq_mshr_hits::.cpu.data            2                       # number of ReadSharedReq MSHR hits
system.l2.ReadSharedReq_mshr_hits::total            2                       # number of ReadSharedReq MSHR hits
system.l2.ReadSharedReq_mshr_misses::.cpu.data        67964                       # number of ReadSharedReq MSHR misses
system.l2.ReadSharedReq_mshr_misses::total        67964                       # number of ReadSharedReq MSHR misses
system.l2.ReadSharedReq_mshr_miss_latency::.cpu.data   4674242500                       # number of ReadSharedReq MSHR miss cycles
system.l2.ReadSharedReq_mshr_miss_latency::total   4674242500                       # number of ReadSharedReq MSHR miss cycles
system.l2.ReadSharedReq_mshr_miss_rate::.cpu.data     0.148297                       # mshr miss rate for ReadSharedReq accesses
system.l2.ReadSharedReq_mshr_miss_rate::total     0.148297                       # mshr miss rate for ReadSharedReq accesses
system.l2.ReadSharedReq_avg_mshr_miss_latency::.cpu.data 68775.270732                       # average ReadSharedReq mshr miss latency
system.l2.ReadSharedReq_avg_mshr_miss_latency::total 68775.270732                       # average ReadSharedReq mshr miss latency
system.l2.power_state.pwrStateResidencyTicks::UNDEFINED  84118074000                       # Cumulative time (in ticks) in various power states
system.l2.tags.tagsinuse                 31922.286269                       # Cycle average of tags in use
system.l2.tags.total_refs                     1544547                       # Total number of references to valid blocks.
system.l2.tags.sampled_refs                    210581                       # Sample count of references to valid blocks.
system.l2.tags.avg_refs                      7.334693                       # Average number of references to valid blocks.
system.l2.tags.warmup_cycle                     77000                       # Cycle when the warmup percentage was hit.
system.l2.tags.occ_blocks::.writebacks      77.591165                       # Average occupied blocks per requestor
system.l2.tags.occ_blocks::.cpu.inst       118.606457                       # Average occupied blocks per requestor
system.l2.tags.occ_blocks::.cpu.data     31726.088647                       # Average occupied blocks per requestor
system.l2.tags.occ_percent::.writebacks      0.002368                       # Average percentage of cache occupancy
system.l2.tags.occ_percent::.cpu.inst        0.003620                       # Average percentage of cache occupancy
system.l2.tags.occ_percent::.cpu.data        0.968203                       # Average percentage of cache occupancy
system.l2.tags.occ_percent::total            0.974191                       # Average percentage of cache occupancy
system.l2.tags.occ_task_id_blocks::1024         32768                       # Occupied blocks per task id
system.l2.tags.age_task_id_blocks_1024::0           35                       # Occupied blocks per task id
system.l2.tags.age_task_id_blocks_1024::1           31                       # Occupied blocks per task id
system.l2.tags.age_task_id_blocks_1024::2          449                       # Occupied blocks per task id
system.l2.tags.age_task_id_blocks_1024::3         7312                       # Occupied blocks per task id
system.l2.tags.age_task_id_blocks_1024::4        24941                       # Occupied blocks per task id
system.l2.tags.occ_task_id_percent::1024            1                       # Percentage of cache occupancy per task id
system.l2.tags.tag_accesses                  12566973                       # Number of tag accesses
system.l2.tags.data_accesses                 12566973                       # Number of data accesses
system.l2.tags.power_state.pwrStateResidencyTicks::UNDEFINED  84118074000                       # Cumulative time (in ticks) in various power states
system.mem_ctrls.avgPriority_.writebacks::samples    118955.00                       # Average QoS priority value for accepted requests
system.mem_ctrls.avgPriority_.cpu.inst::samples       813.00                       # Average QoS priority value for accepted requests
system.mem_ctrls.avgPriority_.cpu.data::samples    209443.00                       # Average QoS priority value for accepted requests
system.mem_ctrls.priorityMinLatency      0.000000018750                       # per QoS priority minimum request to response latency (s)
system.mem_ctrls.priorityMaxLatency      0.002769572500                       # per QoS priority maximum request to response latency (s)
system.mem_ctrls.numReadWriteTurnArounds         7121                       # Number of turnarounds from READ to WRITE
system.mem_ctrls.numWriteReadTurnArounds         7121                       # Number of turnarounds from WRITE to READ
system.mem_ctrls.numStayReadState              550250                       # Number of times bus staying in READ state
system.mem_ctrls.numStayWriteState             111941                       # Number of times bus staying in WRITE state
system.mem_ctrls.readReqs                      210303                       # Number of read requests accepted
system.mem_ctrls.writeReqs                     118955                       # Number of write requests accepted
system.mem_ctrls.readBursts                    210303                       # Number of controller read bursts, including those serviced by the write queue
system.mem_ctrls.writeBursts                   118955                       # Number of controller write bursts, including those merged in the write queue
system.mem_ctrls.servicedByWrQ                     47                       # Number of controller read bursts serviced by the write queue
system.mem_ctrls.mergedWrBursts                     0                       # Number of controller write bursts merged with an existing one
system.mem_ctrls.neitherReadNorWriteReqs            0                       # Number of requests that are neither read nor write
system.mem_ctrls.avgRdQLen                       1.08                       # Average read queue length when enqueuing
system.mem_ctrls.avgWrQLen                      24.55                       # Average write queue length when enqueuing
system.mem_ctrls.numRdRetry                         0                       # Number of times read queue was full causing retry
system.mem_ctrls.numWrRetry                         0                       # Number of times write queue was full causing retry
system.mem_ctrls.readPktSize::0                     0                       # Read request sizes (log2)
system.mem_ctrls.readPktSize::1                     0                       # Read request sizes (log2)
system.mem_ctrls.readPktSize::2                     0                       # Read request sizes (log2)
system.mem_ctrls.readPktSize::3                     0                       # Read request sizes (log2)
system.mem_ctrls.readPktSize::4                     0                       # Read request sizes (log2)
system.mem_ctrls.readPktSize::5                     0                       # Read request sizes (log2)
system.mem_ctrls.readPktSize::6                210303                       # Read request sizes (log2)
system.mem_ctrls.writePktSize::0                    0                       # Write request sizes (log2)
[...]
system.mem_ctrls.dram.bw_write::.writebacks     90505163                       # Write bandwidth from this memory (bytes/s)
system.mem_ctrls.dram.bw_write::total        90505163                       # Write bandwidth from this memory (bytes/s)
system.mem_ctrls.dram.bw_total::.writebacks     90505163                       # Total bandwidth to/from this memory (bytes/s)
system.mem_ctrls.dram.bw_total::.cpu.inst       618559                       # Total bandwidth to/from this memory (bytes/s)
system.mem_ctrls.dram.bw_total::.cpu.data    159387387                       # Total bandwidth to/from this memory (bytes/s)
system.mem_ctrls.dram.bw_total::total       250511109                       # Total bandwidth to/from this memory (bytes/s)
system.mem_ctrls.dram.readBursts               210256                       # Number of DRAM read bursts
system.mem_ctrls.dram.writeBursts              118932                       # Number of DRAM write bursts
system.mem_ctrls.dram.perBankRdBursts::0        13174                       # Per bank write bursts
system.mem_ctrls.dram.perBankRdBursts::1        13319                       # Per bank write bursts
system.mem_ctrls.dram.perBankRdBursts::2        13567                       # Per bank write bursts
system.mem_ctrls.dram.perBankRdBursts::3        13525                       # Per bank write bursts
system.mem_ctrls.dram.perBankRdBursts::4        13264                       # Per bank write bursts
system.mem_ctrls.dram.perBankRdBursts::5        13229                       # Per bank write bursts
system.mem_ctrls.dram.perBankRdBursts::6        13355                       # Per bank write bursts
system.mem_ctrls.dram.perBankRdBursts::7        13111                       # Per bank write bursts
system.mem_ctrls.dram.perBankRdBursts::8        13188                       # Per bank write bursts
system.mem_ctrls.dram.perBankRdBursts::9        13024                       # Per bank write bursts
system.mem_ctrls.dram.perBankRdBursts::10        12996                       # Per bank write bursts
system.mem_ctrls.dram.perBankRdBursts::11        12884                       # Per bank write bursts
system.mem_ctrls.dram.perBankRdBursts::12        13035                       # Per bank write bursts
system.mem_ctrls.dram.perBankRdBursts::13        13066                       # Per bank write bursts
system.mem_ctrls.dram.perBankRdBursts::14        12628                       # Per bank write bursts
system.mem_ctrls.dram.perBankRdBursts::15        12891                       # Per bank write bursts
system.mem_ctrls.dram.perBankWrBursts::0         7343                       # Per bank write bursts
system.mem_ctrls.dram.perBankWrBursts::1         7504                       # Per bank write bursts
system.mem_ctrls.dram.perBankWrBursts::2         7611                       # Per bank write bursts
system.mem_ctrls.dram.perBankWrBursts::3         7613                       # Per bank write bursts
system.mem_ctrls.dram.perBankWrBursts::4         7446                       # Per bank write bursts
system.mem_ctrls.dram.perBankWrBursts::5         7455                       # Per bank write bursts
system.mem_ctrls.dram.perBankWrBursts::6         7621                       # Per bank write bursts
system.mem_ctrls.dram.perBankWrBursts::7         7450                       # Per bank write bursts
system.mem_ctrls.dram.perBankWrBursts::8         7507                       # Per bank write bursts
system.mem_ctrls.dram.perBankWrBursts::9         7443                       # Per bank write bursts
system.mem_ctrls.dram.perBankWrBursts::10         7535                       # Per bank write bursts
system.mem_ctrls.dram.perBankWrBursts::11         7465                       # Per bank write bursts
system.mem_ctrls.dram.perBankWrBursts::12         7408                       # Per bank write bursts
system.mem_ctrls.dram.perBankWrBursts::13         7355                       # Per bank write bursts
system.mem_ctrls.dram.perBankWrBursts::14         6978                       # Per bank write bursts
system.mem_ctrls.dram.perBankWrBursts::15         7198                       # Per bank write bursts
system.mem_ctrls.dram.totQLat              3042146250                       # Total ticks spent queuing
system.mem_ctrls.dram.totBusLat            1051280000                       # Total ticks spent in databus transfers
system.mem_ctrls.dram.totMemAccLat         6984446250                       # Total ticks spent from burst creation until serviced by the DRAM
system.mem_ctrls.dram.avgQLat                14468.77                       # Average queueing delay per DRAM burst
system.mem_ctrls.dram.avgBusLat               5000.00                       # Average bus latency per DRAM burst
system.mem_ctrls.dram.avgMemAccLat           33218.77                       # Average memory access latency per DRAM burst
system.mem_ctrls.dram.readRowHits              141832                       # Number of row buffer hits during reads
system.mem_ctrls.dram.writeRowHits              71601                       # Number of row buffer hits during writes
system.mem_ctrls.dram.readRowHitRate            67.46                       # Row buffer hit rate for reads
system.mem_ctrls.dram.writeRowHitRate           60.20                       # Row buffer hit rate for writes
system.mem_ctrls.dram.bytesPerActivate::samples       115746                       # Bytes accessed per row activation
system.mem_ctrls.dram.bytesPerActivate::mean   182.014549                       # Bytes accessed per row activation
system.mem_ctrls.dram.bytesPerActivate::gmean   107.456924                       # Bytes accessed per row activation
system.mem_ctrls.dram.bytesPerActivate::stdev   249.879570                       # Bytes accessed per row activation
system.mem_ctrls.dram.bytesPerActivate::0-127        78075     67.45%     67.45% # Bytes accessed per row activation
system.mem_ctrls.dram.bytesPerActivate::128-255        16577     14.32%     81.78% # Bytes accessed per row activation
system.mem_ctrls.dram.bytesPerActivate::256-383         2452      2.12%     83.89% # Bytes accessed per row activation
system.mem_ctrls.dram.bytesPerActivate::384-511         1618      1.40%     85.29% # Bytes accessed per row activation
system.mem_ctrls.dram.bytesPerActivate::512-639         8757      7.57%     92.86% # Bytes accessed per row activation
system.mem_ctrls.dram.bytesPerActivate::640-767          665      0.57%     93.43% # Bytes accessed per row activation
system.mem_ctrls.dram.bytesPerActivate::768-895         1314      1.14%     94.57% # Bytes accessed per row activation
system.mem_ctrls.dram.bytesPerActivate::896-1023          595      0.51%     95.08% # Bytes accessed per row activation
system.mem_ctrls.dram.bytesPerActivate::1024-1151         5693      4.92%    100.00% # Bytes accessed per row activation
system.mem_ctrls.dram.bytesPerActivate::total       115746                       # Bytes accessed per row activation
system.mem_ctrls.dram.bytesRead              13456384                       # Total number of bytes read from DRAM
system.mem_ctrls.dram.bytesWritten            7611648                       # Total number of bytes written to DRAM
system.mem_ctrls.dram.avgRdBW              159.970187                       # Average DRAM read bandwidth in MiBytes/s
system.mem_ctrls.dram.avgWrBW               90.487664                       # Average DRAM write bandwidth in MiBytes/s
system.mem_ctrls.dram.peakBW                 12800.00                       # Theoretical peak bandwidth in MiByte/s
system.mem_ctrls.dram.busUtil                    1.96                       # Data bus utilization in percentage
system.mem_ctrls.dram.busUtilRead                1.25                       # Data bus utilization in percentage for reads
system.mem_ctrls.dram.busUtilWrite               0.71                       # Data bus utilization in percentage for writes
system.mem_ctrls.dram.pageHitRate               64.84                       # Row buffer hit rate, read and write combined
system.mem_ctrls.dram.power_state.pwrStateResidencyTicks::UNDEFINED  84118074000                       # Cumulative time (in ticks) in various power states
system.mem_ctrls.dram.rank0.actEnergy       415305240                       # Energy for activate commands per rank (pJ)
system.mem_ctrls.dram.rank0.preEnergy       220717200                       # Energy for precharge commands per rank (pJ)
system.mem_ctrls.dram.rank0.readEnergy      760724160                       # Energy for read commands per rank (pJ)
system.mem_ctrls.dram.rank0.writeEnergy     313424460                       # Energy for write commands per rank (pJ)
system.mem_ctrls.dram.rank0.refreshEnergy 6639955920.000001                       # Energy for refresh commands per rank (pJ)
system.mem_ctrls.dram.rank0.actBackEnergy  21517318170                       # Energy for active background per rank (pJ)
system.mem_ctrls.dram.rank0.preBackEnergy  14181493920                       # Energy for precharge background per rank (pJ)
system.mem_ctrls.dram.rank0.actPowerDownEnergy            0                       # Energy for active power-down per rank (pJ)
system.mem_ctrls.dram.rank0.prePowerDownEnergy            0                       # Energy for precharge power-down per rank (pJ)
system.mem_ctrls.dram.rank0.selfRefreshEnergy            0                       # Energy for self refresh per rank (pJ)
system.mem_ctrls.dram.rank0.totalEnergy   44048939070                       # Total energy per rank (pJ)
system.mem_ctrls.dram.rank0.averagePower   523.656058                       # Core power per rank (mW)
system.mem_ctrls.dram.rank0.totalIdleTime            0                       # Total Idle time Per DRAM Rank
system.mem_ctrls.dram.rank0.pwrStateTime::IDLE  36644192500                       # Time in different power states
system.mem_ctrls.dram.rank0.pwrStateTime::REF   2808780000                       # Time in different power states
system.mem_ctrls.dram.rank0.pwrStateTime::SREF            0                       # Time in different power states
system.mem_ctrls.dram.rank0.pwrStateTime::PRE_PDN            0                       # Time in different power states
system.mem_ctrls.dram.rank0.pwrStateTime::ACT  44665101500                       # Time in different power states
system.mem_ctrls.dram.rank0.pwrStateTime::ACT_PDN            0                       # Time in different power states
system.mem_ctrls.dram.rank1.actEnergy       411185460                       # Energy for activate commands per rank (pJ)
system.mem_ctrls.dram.rank1.preEnergy       218538870                       # Energy for precharge commands per rank (pJ)
system.mem_ctrls.dram.rank1.readEnergy      740503680                       # Energy for read commands per rank (pJ)
system.mem_ctrls.dram.rank1.writeEnergy     307400580                       # Energy for write commands per rank (pJ)
system.mem_ctrls.dram.rank1.refreshEnergy 6639955920.000001                       # Energy for refresh commands per rank (pJ)
system.mem_ctrls.dram.rank1.actBackEnergy  20672409450                       # Energy for active background per rank (pJ)
system.mem_ctrls.dram.rank1.preBackEnergy  14892996000                       # Energy for precharge background per rank (pJ)
system.mem_ctrls.dram.rank1.actPowerDownEnergy            0                       # Energy for active power-down per rank (pJ)
system.mem_ctrls.dram.rank1.prePowerDownEnergy            0                       # Energy for precharge power-down per rank (pJ)
system.mem_ctrls.dram.rank1.selfRefreshEnergy            0                       # Energy for self refresh per rank (pJ)
system.mem_ctrls.dram.rank1.totalEnergy   43882989960                       # Total energy per rank (pJ)
system.mem_ctrls.dram.rank1.averagePower   521.683247                       # Core power per rank (mW)
system.mem_ctrls.dram.rank1.totalIdleTime            0                       # Total Idle time Per DRAM Rank
system.mem_ctrls.dram.rank1.pwrStateTime::IDLE  38504160250                       # Time in different power states
system.mem_ctrls.dram.rank1.pwrStateTime::REF   2808780000                       # Time in different power states
system.mem_ctrls.dram.rank1.pwrStateTime::SREF            0                       # Time in different power states
system.mem_ctrls.dram.rank1.pwrStateTime::PRE_PDN            0                       # Time in different power states
system.mem_ctrls.dram.rank1.pwrStateTime::ACT  42805133750                       # Time in different power states
system.mem_ctrls.dram.rank1.pwrStateTime::ACT_PDN            0                       # Time in different power states
system.mem_ctrls.power_state.pwrStateResidencyTicks::UNDEFINED  84118074000                       # Cumulative time (in ticks) in various power states
system.membus.trans_dist::ReadResp              68777                       # Transaction distribution
system.membus.trans_dist::WritebackDirty       118955                       # Transaction distribution
system.membus.trans_dist::CleanEvict            58158                       # Transaction distribution
system.membus.trans_dist::ReadExReq            141526                       # Transaction distribution
system.membus.trans_dist::ReadExResp           141526                       # Transaction distribution
system.membus.trans_dist::ReadSharedReq         68777                       # Transaction distribution
system.membus.pkt_count_system.l2.mem_side_port::system.mem_ctrls.port       597719                       # Packet count per connected requestor and responder (bytes)
system.membus.pkt_count::total                 597719                       # Packet count per connected requestor and responder (bytes)
system.membus.pkt_size_system.l2.mem_side_port::system.mem_ctrls.port     21072512                       # Cumulative packet size per connected requestor and responder (bytes)
system.membus.pkt_size::total                21072512                       # Cumulative packet size per connected requestor and responder (bytes)
system.membus.snoops                                0                       # Total snoops (count)
system.membus.snoopTraffic                          0                       # Total snoop traffic (bytes)
system.membus.snoop_fanout::samples            210303                       # Request fanout histogram
system.membus.snoop_fanout::mean                    0                       # Request fanout histogram
system.membus.snoop_fanout::stdev                   0                       # Request fanout histogram
system.membus.snoop_fanout::underflows              0      0.00%      0.00% # Request fanout histogram
system.membus.snoop_fanout::0                  210303    100.00%    100.00% # Request fanout histogram
system.membus.snoop_fanout::1                       0      0.00%    100.00% # Request fanout histogram
system.membus.snoop_fanout::overflows               0      0.00%    100.00% # Request fanout histogram
system.membus.snoop_fanout::min_value               0                       # Request fanout histogram
system.membus.snoop_fanout::max_value               0                       # Request fanout histogram
system.membus.snoop_fanout::total              210303                       # Request fanout histogram
system.membus.power_state.pwrStateResidencyTicks::UNDEFINED  84118074000                       # Cumulative time (in ticks) in various power states
system.membus.reqLayer0.occupancy           895742000                       # Layer occupancy (ticks)
system.membus.reqLayer0.utilization               1.1                       # Layer utilization (%)
system.membus.respLayer1.occupancy         1134159250                       # Layer occupancy (ticks)
system.membus.respLayer1.utilization              1.3                       # Layer utilization (%)
system.tol2bus.trans_dist::ReadResp            459115                       # Transaction distribution
system.tol2bus.trans_dist::WritebackDirty       786817                       # Transaction distribution
system.tol2bus.trans_dist::WritebackClean          306                       # Transaction distribution
system.tol2bus.trans_dist::CleanEvict          162222                       # Transaction distribution
system.tol2bus.trans_dist::ReadExReq           313954                       # Transaction distribution
system.tol2bus.trans_dist::ReadExResp          313954                       # Transaction distribution
system.tol2bus.trans_dist::ReadCleanReq           818                       # Transaction distribution
system.tol2bus.trans_dist::ReadSharedReq       458297                       # Transaction distribution
system.tol2bus.pkt_count_system.cpu.icache.mem_side_port::system.l2.cpu_side_port         1942                       # Packet count per connected requestor and responder (bytes)
system.tol2bus.pkt_count_system.cpu.dcache.mem_side_port::system.l2.cpu_side_port      2315728                       # Packet count per connected requestor and responder (bytes)
system.tol2bus.pkt_count::total               2317670                       # Packet count per connected requestor and responder (bytes)
system.tol2bus.pkt_size_system.cpu.icache.mem_side_port::system.l2.cpu_side_port        71936                       # Cumulative packet size per connected requestor and responder (bytes)
system.tol2bus.pkt_size_system.cpu.dcache.mem_side_port::system.l2.cpu_side_port     92167232                       # Cumulative packet size per connected requestor and responder (bytes)
system.tol2bus.pkt_size::total               92239168                       # Cumulative packet size per connected requestor and responder (bytes)
system.tol2bus.snoops                          177813                       # Total snoops (count)
system.tol2bus.snoopTraffic                   7613120                       # Total snoop traffic (bytes)
system.tol2bus.snoop_fanout::samples           950882                       # Request fanout histogram
system.tol2bus.snoop_fanout::mean            0.000791                       # Request fanout histogram
system.tol2bus.snoop_fanout::stdev           0.028111                       # Request fanout histogram
system.tol2bus.snoop_fanout::underflows             0      0.00%      0.00% # Request fanout histogram
system.tol2bus.snoop_fanout::0                 950130     99.92%     99.92% # Request fanout histogram
system.tol2bus.snoop_fanout::1                    752      0.08%    100.00% # Request fanout histogram
system.tol2bus.snoop_fanout::2                      0      0.00%    100.00% # Request fanout histogram
system.tol2bus.snoop_fanout::overflows              0      0.00%    100.00% # Request fanout histogram
system.tol2bus.snoop_fanout::min_value              0                       # Request fanout histogram
system.tol2bus.snoop_fanout::max_value              1                       # Request fanout histogram
system.tol2bus.snoop_fanout::total             950882                       # Request fanout histogram
system.tol2bus.power_state.pwrStateResidencyTicks::UNDEFINED  84118074000                       # Cumulative time (in ticks) in various power states
system.tol2bus.reqLayer0.occupancy         1440468500                       # Layer occupancy (ticks)
system.tol2bus.reqLayer0.utilization              1.7                       # Layer utilization (%)
system.tol2bus.respLayer0.occupancy           1227000                       # Layer occupancy (ticks)
system.tol2bus.respLayer0.utilization             0.0                       # Layer utilization (%)
system.tol2bus.respLayer1.occupancy        1158377498                       # Layer occupancy (ticks)
system.tol2bus.respLayer1.utilization             1.4                       # Layer utilization (%)
system.voltage_domain.voltage                       1                       # Voltage in Volts

---------- End Simulation Statistics   ----------
