
---------- Begin Simulation Statistics ----------
final_tick                               516983213500                       # Number of ticks from beginning of simulation (restored from checkpoints and never reset)
host_inst_rate                                  47332                       # Simulator instruction rate (inst/s)
host_mem_usage                                 670944                       # Number of bytes of host memory used
host_op_rate                                    87475                       # Simulator op (including micro ops) rate (op/s)
host_seconds                                  2112.75                       # Real time elapsed on the host
host_tick_rate                              244697264                       # Simulator tick rate (ticks/s)
sim_freq                                 1000000000000                       # Frequency of simulated ticks
sim_insts                                   100000001                       # Number of instructions simulated
sim_ops                                     184812628                       # Number of ops (including micro ops) simulated
sim_seconds                                  0.516983                       # Number of seconds simulated
sim_ticks                                516983213500                       # Number of ticks simulated
system.cpu.committedInsts                   100000001                       # Number of instructions committed
system.cpu.committedOps                     184812628                       # Number of ops (including micro ops) committed
system.cpu.cpi                              10.339664                       # CPI: cycles per instruction
system.cpu.discardedOps                          3819                       # Number of ops (including micro ops) which were discarded before commit
system.cpu.idleCycles                       811752523                       # Total number of cycles that the object has spent stopped
system.cpu.ipc                               0.096715                       # IPC: instructions per cycle
system.cpu.numCycles                       1033966427                       # number of cpu cycles simulated
system.cpu.numFetchSuspends                         0                       # Number of times Execute suspended instruction fetching
system.cpu.numWorkItemsCompleted                    0                       # number of work items this cpu completed
system.cpu.numWorkItemsStarted                      0                       # number of work items this cpu started
system.cpu.op_class_0::No_OpClass                   0      0.00%      0.00% # Class of committed instruction
system.cpu.op_class_0::IntAlu                98417144     53.25%     53.25% # Class of committed instruction
system.cpu.op_class_0::IntMult                 114667      0.06%     53.31% # Class of committed instruction
system.cpu.op_class_0::IntDiv                       5      0.00%     53.31% # Class of committed instruction
system.cpu.op_class_0::FloatAdd                     0      0.00%     53.31% # Class of committed instruction
system.cpu.op_class_0::FloatCmp                     0      0.00%     53.31% # Class of committed instruction
system.cpu.op_class_0::FloatCvt                     0      0.00%     53.31% # Class of committed instruction
system.cpu.op_class_0::FloatMult                    0      0.00%     53.31% # Class of committed instruction
system.cpu.op_class_0::FloatMultAcc                 0      0.00%     53.31% # Class of committed instruction
system.cpu.op_class_0::FloatDiv                     0      0.00%     53.31% # Class of committed instruction
system.cpu.op_class_0::FloatMisc                    0      0.00%     53.31% # Class of committed instruction
system.cpu.op_class_0::FloatSqrt                    0      0.00%     53.31% # Class of committed instruction
system.cpu.op_class_0::SimdAdd                      0      0.00%     53.31% # Class of committed instruction
system.cpu.op_class_0::SimdAddAcc                   0      0.00%     53.31% # Class of committed instruction
system.cpu.op_class_0::SimdAlu                      0      0.00%     53.31% # Class of committed instruction
system.cpu.op_class_0::SimdCmp                      0      0.00%     53.31% # Class of committed instruction
system.cpu.op_class_0::SimdCvt                      0      0.00%     53.31% # Class of committed instruction
system.cpu.op_class_0::SimdMisc                     0      0.00%     53.31% # Class of committed instruction
system.cpu.op_class_0::SimdMult                     0      0.00%     53.31% # Class of committed instruction
system.cpu.op_class_0::SimdMultAcc                  0      0.00%     53.31% # Class of committed instruction
system.cpu.op_class_0::SimdShift                    0      0.00%     53.31% # Class of committed instruction
system.cpu.op_class_0::SimdShiftAcc                 0      0.00%     53.31% # Class of committed instruction
system.cpu.op_class_0::SimdDiv                      0      0.00%     53.31% # Class of committed instruction
system.cpu.op_class_0::SimdSqrt                     0      0.00%     53.31% # Class of committed instruction
system.cpu.op_class_0::SimdFloatAdd                 0      0.00%     53.31% # Class of committed instruction
system.cpu.op_class_0::SimdFloatAlu                 0      0.00%     53.31% # Class of committed instruction
system.cpu.op_class_0::SimdFloatCmp                 0      0.00%     53.31% # Class of committed instruction
system.cpu.op_class_0::SimdFloatCvt                 0      0.00%     53.31% # Class of committed instruction
system.cpu.op_class_0::SimdFloatDiv                 0      0.00%     53.31% # Class of committed instruction
system.cpu.op_class_0::SimdFloatMisc                2      0.00%     53.31% # Class of committed instruction
system.cpu.op_class_0::SimdFloatMult                0      0.00%     53.31% # Class of committed instruction
system.cpu.op_class_0::SimdFloatMultAcc             0      0.00%     53.31% # Class of committed instruction
system.cpu.op_class_0::SimdFloatSqrt                0      0.00%     53.31% # Class of committed instruction
system.cpu.op_class_0::SimdReduceAdd                0      0.00%     53.31% # Class of committed instruction
system.cpu.op_class_0::SimdReduceAlu                0      0.00%     53.31% # Class of committed instruction
system.cpu.op_class_0::SimdReduceCmp                0      0.00%     53.31% # Class of committed instruction
system.cpu.op_class_0::SimdFloatReduceAdd            0      0.00%     53.31% # Class of committed instruction
system.cpu.op_class_0::SimdFloatReduceCmp            0      0.00%     53.31% # Class of committed instruction
system.cpu.op_class_0::SimdAes                      0      0.00%     53.31% # Class of committed instruction
system.cpu.op_class_0::SimdAesMix                   0      0.00%     53.31% # Class of committed instruction
system.cpu.op_class_0::SimdSha1Hash                 0      0.00%     53.31% # Class of committed instruction
system.cpu.op_class_0::SimdSha1Hash2                0      0.00%     53.31% # Class of committed instruction
system.cpu.op_class_0::SimdSha256Hash               0      0.00%     53.31% # Class of committed instruction
system.cpu.op_class_0::SimdSha256Hash2              0      0.00%     53.31% # Class of committed instruction
system.cpu.op_class_0::SimdShaSigma2                0      0.00%     53.31% # Class of committed instruction
system.cpu.op_class_0::SimdShaSigma3                0      0.00%     53.31% # Class of committed instruction
system.cpu.op_class_0::SimdPredAlu                  0      0.00%     53.31% # Class of committed instruction
system.cpu.op_class_0::MemRead                1305605      0.71%     54.02% # Class of committed instruction
system.cpu.op_class_0::MemWrite              84975205     45.98%    100.00% # Class of committed instruction
system.cpu.op_class_0::FloatMemRead                 0      0.00%    100.00% # Class of committed instruction
system.cpu.op_class_0::FloatMemWrite                0      0.00%    100.00% # Class of committed instruction
system.cpu.op_class_0::IprAccess                    0      0.00%    100.00% # Class of committed instruction
system.cpu.op_class_0::InstPrefetch                 0      0.00%    100.00% # Class of committed instruction
system.cpu.op_class_0::total                184812628                       # Class of committed instruction
system.cpu.tickCycles                       222213904                       # Number of cycles that the object actually ticked
system.cpu.workload.numSyscalls                    18                       # Number of system calls
system.membus.snoop_filter.hit_multi_requests            0                       # Number of requests hitting in the snoop filter with multiple (>1) holders of the requested data.
system.membus.snoop_filter.hit_multi_snoops            0                       # Number of snoops hitting in the snoop filter with multiple (>1) holders of the requested data.
system.membus.snoop_filter.hit_single_requests      5267661                       # Number of requests hitting in the snoop filter with a single holder of the requested data.
system.membus.snoop_filter.hit_single_snoops            0                       # Number of snoops hitting in the snoop filter with a single holder of the requested data.
system.membus.snoop_filter.tot_requests      10568596                       # Total number of requests made to the snoop filter.
system.membus.snoop_filter.tot_snoops               0                       # Total number of snoops made to the snoop filter.
system.tol2bus.snoop_filter.hit_multi_requests           25                       # Number of requests hitting in the snoop filter with multiple (>1) holders of the requested data.
system.tol2bus.snoop_filter.hit_multi_snoops            0                       # Number of snoops hitting in the snoop filter with multiple (>1) holders of the requested data.
system.tol2bus.snoop_filter.hit_single_requests      5299459                       # Number of requests hitting in the snoop filter with a single holder of the requested data.
system.tol2bus.snoop_filter.hit_single_snoops          680                       # Number of snoops hitting in the snoop filter with a single holder of the requested data.
system.tol2bus.snoop_filter.tot_requests     10600450                       # Total number of requests made to the snoop filter.
system.tol2bus.snoop_filter.tot_snoops            680                       # Total number of snoops made to the snoop filter.
system.clk_domain.clock                          1000                       # Clock period in ticks
system.cpu.branchPred.lookups                10731414                       # Number of BP lookups
system.cpu.branchPred.condPredicted          10723548                       # Number of conditional branches predicted
system.cpu.branchPred.condIncorrect              1282                       # Number of conditional branches incorrect
system.cpu.branchPred.BTBLookups             10724099                       # Number of BTB lookups
system.cpu.branchPred.BTBHits                10722943                       # Number of BTB hits
system.cpu.branchPred.BTBHitPct             99.989221                       # BTB Hit Percentage
system.cpu.branchPred.RASUsed                    2619                       # Number of times the RAS was used to get a target.
system.cpu.branchPred.RASIncorrect                  6                       # Number of incorrect RAS predictions.
system.cpu.branchPred.indirectLookups             124                       # Number of indirect predictor lookups.
system.cpu.branchPred.indirectHits                  5                       # Number of indirect target hits.
system.cpu.branchPred.indirectMisses              119                       # Number of indirect misses.
system.cpu.branchPred.indirectMispredicted           82                       # Number of mispredicted indirect branches.
system.cpu.dcache.demand_hits::.cpu.data     75599569                       # number of demand (read+write) hits
system.cpu.dcache.demand_hits::total         75599569                       # number of demand (read+write) hits
system.cpu.dcache.overall_hits::.cpu.data     75599598                       # number of overall hits
system.cpu.dcache.overall_hits::total        75599598                       # number of overall hits
system.cpu.dcache.demand_misses::.cpu.data     10597860                       # number of demand (read+write) misses
system.cpu.dcache.demand_misses::total       10597860                       # number of demand (read+write) misses
system.cpu.dcache.overall_misses::.cpu.data     10597877                       # number of overall misses
system.cpu.dcache.overall_misses::total      10597877                       # number of overall misses
system.cpu.dcache.demand_miss_latency::.cpu.data 883103009000                       # number of demand (read+write) miss cycles
system.cpu.dcache.demand_miss_latency::total 883103009000                       # number of demand (read+write) miss cycles
system.cpu.dcache.overall_miss_latency::.cpu.data 883103009000                       # number of overall miss cycles
system.cpu.dcache.overall_miss_latency::total 883103009000                       # number of overall miss cycles
system.cpu.dcache.demand_accesses::.cpu.data     86197429                       # number of demand (read+write) accesses
system.cpu.dcache.demand_accesses::total     86197429                       # number of demand (read+write) accesses
system.cpu.dcache.overall_accesses::.cpu.data     86197475                       # number of overall (read+write) accesses
system.cpu.dcache.overall_accesses::total     86197475                       # number of overall (read+write) accesses
system.cpu.dcache.demand_miss_rate::.cpu.data     0.122949                       # miss rate for demand accesses
system.cpu.dcache.demand_miss_rate::total     0.122949                       # miss rate for demand accesses
system.cpu.dcache.overall_miss_rate::.cpu.data     0.122949                       # miss rate for overall accesses
system.cpu.dcache.overall_miss_rate::total     0.122949                       # miss rate for overall accesses
system.cpu.dcache.demand_avg_miss_latency::.cpu.data 83328.427532                       # average overall miss latency
system.cpu.dcache.demand_avg_miss_latency::total 83328.427532                       # average overall miss latency
system.cpu.dcache.overall_avg_miss_latency::.cpu.data 83328.293865                       # average overall miss latency
system.cpu.dcache.overall_avg_miss_latency::total 83328.293865                       # average overall miss latency
system.cpu.dcache.blocked_cycles::no_mshrs            0                       # number of cycles access was blocked
system.cpu.dcache.blocked_cycles::no_targets            0                       # number of cycles access was blocked
system.cpu.dcache.blocked::no_mshrs                 0                       # number of cycles access was blocked
system.cpu.dcache.blocked::no_targets               0                       # number of cycles access was blocked
system.cpu.dcache.avg_blocked_cycles::no_mshrs          nan                       # average number of cycles each access was blocked
system.cpu.dcache.avg_blocked_cycles::no_targets          nan                       # average number of cycles each access was blocked
system.cpu.dcache.writebacks::.writebacks      5299072                       # number of writebacks
system.cpu.dcache.writebacks::total           5299072                       # number of writebacks
system.cpu.dcache.demand_mshr_hits::.cpu.data      5297607                       # number of demand (read+write) MSHR hits
system.cpu.dcache.demand_mshr_hits::total      5297607                       # number of demand (read+write) MSHR hits
system.cpu.dcache.overall_mshr_hits::.cpu.data      5297607                       # number of overall MSHR hits
system.cpu.dcache.overall_mshr_hits::total      5297607                       # number of overall MSHR hits
system.cpu.dcache.demand_mshr_misses::.cpu.data      5300253                       # number of demand (read+write) MSHR misses
system.cpu.dcache.demand_mshr_misses::total      5300253                       # number of demand (read+write) MSHR misses
system.cpu.dcache.overall_mshr_misses::.cpu.data      5300267                       # number of overall MSHR misses
system.cpu.dcache.overall_mshr_misses::total      5300267                       # number of overall MSHR misses
system.cpu.dcache.demand_mshr_miss_latency::.cpu.data 435042928000                       # number of demand (read+write) MSHR miss cycles
system.cpu.dcache.demand_mshr_miss_latency::total 435042928000                       # number of demand (read+write) MSHR miss cycles
system.cpu.dcache.overall_mshr_miss_latency::.cpu.data 435044162500                       # number of overall MSHR miss cycles
system.cpu.dcache.overall_mshr_miss_latency::total 435044162500                       # number of overall MSHR miss cycles
system.cpu.dcache.demand_mshr_miss_rate::.cpu.data     0.061490                       # mshr miss rate for demand accesses
system.cpu.dcache.demand_mshr_miss_rate::total     0.061490                       # mshr miss rate for demand accesses
system.cpu.dcache.overall_mshr_miss_rate::.cpu.data     0.061490                       # mshr miss rate for overall accesses
system.cpu.dcache.overall_mshr_miss_rate::total     0.061490                       # mshr miss rate for overall accesses
system.cpu.dcache.demand_avg_mshr_miss_latency::.cpu.data 82079.653179                       # average overall mshr miss latency
system.cpu.dcache.demand_avg_mshr_miss_latency::total 82079.653179                       # average overall mshr miss latency
system.cpu.dcache.overall_avg_mshr_miss_latency::.cpu.data 82079.669288                       # average overall mshr miss latency
system.cpu.dcache.overall_avg_mshr_miss_latency::total 82079.669288                       # average overall mshr miss latency
system.cpu.dcache.replacements                5299245                       # number of replacements
system.cpu.dcache.ReadReq_hits::.cpu.data      1266404                       # number of ReadReq hits
system.cpu.dcache.ReadReq_hits::total         1266404                       # number of ReadReq hits
system.cpu.dcache.ReadReq_misses::.cpu.data          215                       # number of ReadReq misses
system.cpu.dcache.ReadReq_misses::total           215                       # number of ReadReq misses
system.cpu.dcache.ReadReq_miss_latency::.cpu.data     17678000                       # number of ReadReq miss cycles
system.cpu.dcache.ReadReq_miss_latency::total     17678000                       # number of ReadReq miss cycles
system.cpu.dcache.ReadReq_accesses::.cpu.data      1266619                       # number of ReadReq accesses(hits+misses)
system.cpu.dcache.ReadReq_accesses::total      1266619                       # number of ReadReq accesses(hits+misses)
system.cpu.dcache.ReadReq_miss_rate::.cpu.data     0.000170                       # miss rate for ReadReq accesses
system.cpu.dcache.ReadReq_miss_rate::total     0.000170                       # miss rate for ReadReq accesses
system.cpu.dcache.ReadReq_avg_miss_latency::.cpu.data 82223.255814                       # average ReadReq miss latency
system.cpu.dcache.ReadReq_avg_miss_latency::total 82223.255814                       # average ReadReq miss latency
system.cpu.dcache.ReadReq_mshr_hits::.cpu.data           10                       # number of ReadReq MSHR hits
system.cpu.dcache.ReadReq_mshr_hits::total           10                       # number of ReadReq MSHR hits
system.cpu.dcache.ReadReq_mshr_misses::.cpu.data          205                       # number of ReadReq MSHR misses
system.cpu.dcache.ReadReq_mshr_misses::total          205                       # number of ReadReq MSHR misses
system.cpu.dcache.ReadReq_mshr_miss_latency::.cpu.data     16636500                       # number of ReadReq MSHR miss cycles
system.cpu.dcache.ReadReq_mshr_miss_latency::total     16636500                       # number of ReadReq MSHR miss cycles
system.cpu.dcache.ReadReq_mshr_miss_rate::.cpu.data     0.000162                       # mshr miss rate for ReadReq accesses
system.cpu.dcache.ReadReq_mshr_miss_rate::total     0.000162                       # mshr miss rate for ReadReq accesses
system.cpu.dcache.ReadReq_avg_mshr_miss_latency::.cpu.data 81153.658537                       # average ReadReq mshr miss latency
system.cpu.dcache.ReadReq_avg_mshr_miss_latency::total 81153.658537                       # average ReadReq mshr miss latency
system.cpu.dcache.WriteReq_hits::.cpu.data     74333165                       # number of WriteReq hits
system.cpu.dcache.WriteReq_hits::total       74333165                       # number of WriteReq hits
system.cpu.dcache.WriteReq_misses::.cpu.data     10597645                       # number of WriteReq misses
system.cpu.dcache.WriteReq_misses::total     10597645                       # number of WriteReq misses
system.cpu.dcache.WriteReq_miss_latency::.cpu.data 883085331000                       # number of WriteReq miss cycles
system.cpu.dcache.WriteReq_miss_latency::total 883085331000                       # number of WriteReq miss cycles
system.cpu.dcache.WriteReq_accesses::.cpu.data     84930810                       # number of WriteReq accesses(hits+misses)
system.cpu.dcache.WriteReq_accesses::total     84930810                       # number of WriteReq accesses(hits+misses)
system.cpu.dcache.WriteReq_miss_rate::.cpu.data     0.124780                       # miss rate for WriteReq accesses
system.cpu.dcache.WriteReq_miss_rate::total     0.124780                       # miss rate for WriteReq accesses
system.cpu.dcache.WriteReq_avg_miss_latency::.cpu.data 83328.449953                       # average WriteReq miss latency
system.cpu.dcache.WriteReq_avg_miss_latency::total 83328.449953                       # average WriteReq miss latency
system.cpu.dcache.WriteReq_mshr_hits::.cpu.data      5297597                       # number of WriteReq MSHR hits
system.cpu.dcache.WriteReq_mshr_hits::total      5297597                       # number of WriteReq MSHR hits
system.cpu.dcache.WriteReq_mshr_misses::.cpu.data      5300048                       # number of WriteReq MSHR misses
system.cpu.dcache.WriteReq_mshr_misses::total      5300048                       # number of WriteReq MSHR misses
system.cpu.dcache.WriteReq_mshr_miss_latency::.cpu.data 435026291500                       # number of WriteReq MSHR miss cycles
system.cpu.dcache.WriteReq_mshr_miss_latency::total 435026291500                       # number of WriteReq MSHR miss cycles
system.cpu.dcache.WriteReq_mshr_miss_rate::.cpu.data     0.062404                       # mshr miss rate for WriteReq accesses
system.cpu.dcache.WriteReq_mshr_miss_rate::total     0.062404                       # mshr miss rate for WriteReq accesses
system.cpu.dcache.WriteReq_avg_mshr_miss_latency::.cpu.data 82079.688995                       # average WriteReq mshr miss latency
system.cpu.dcache.WriteReq_avg_mshr_miss_latency::total 82079.688995                       # average WriteReq mshr miss latency
system.cpu.dcache.SoftPFReq_hits::.cpu.data           29                       # number of SoftPFReq hits
system.cpu.dcache.SoftPFReq_hits::total            29                       # number of SoftPFReq hits
system.cpu.dcache.SoftPFReq_misses::.cpu.data           17                       # number of SoftPFReq misses
system.cpu.dcache.SoftPFReq_misses::total           17                       # number of SoftPFReq misses
system.cpu.dcache.SoftPFReq_accesses::.cpu.data           46                       # number of SoftPFReq accesses(hits+misses)
system.cpu.dcache.SoftPFReq_accesses::total           46                       # number of SoftPFReq accesses(hits+misses)
system.cpu.dcache.SoftPFReq_miss_rate::.cpu.data     0.369565                       # miss rate for SoftPFReq accesses
system.cpu.dcache.SoftPFReq_miss_rate::total     0.369565                       # miss rate for SoftPFReq accesses
system.cpu.dcache.SoftPFReq_mshr_misses::.cpu.data           14                       # number of SoftPFReq MSHR misses
system.cpu.dcache.SoftPFReq_mshr_misses::total           14                       # number of SoftPFReq MSHR misses
system.cpu.dcache.SoftPFReq_mshr_miss_latency::.cpu.data      1234500                       # number of SoftPFReq MSHR miss cycles
system.cpu.dcache.SoftPFReq_mshr_miss_latency::total      1234500                       # number of SoftPFReq MSHR miss cycles
system.cpu.dcache.SoftPFReq_mshr_miss_rate::.cpu.data     0.304348                       # mshr miss rate for SoftPFReq accesses
system.cpu.dcache.SoftPFReq_mshr_miss_rate::total     0.304348                       # mshr miss rate for SoftPFReq accesses
system.cpu.dcache.SoftPFReq_avg_mshr_miss_latency::.cpu.data 88178.571429                       # average SoftPFReq mshr miss latency
system.cpu.dcache.SoftPFReq_avg_mshr_miss_latency::total 88178.571429                       # average SoftPFReq mshr miss latency
system.cpu.dcache.LoadLockedReq_hits::.cpu.data           48                       # number of LoadLockedReq hits
system.cpu.dcache.LoadLockedReq_hits::total           48                       # number of LoadLockedReq hits
system.cpu.dcache.LoadLockedReq_misses::.cpu.data            2                       # number of LoadLockedReq misses
system.cpu.dcache.LoadLockedReq_misses::total            2                       # number of LoadLockedReq misses
system.cpu.dcache.LoadLockedReq_miss_latency::.cpu.data       203000                       # number of LoadLockedReq miss cycles
system.cpu.dcache.LoadLockedReq_miss_latency::total       203000                       # number of LoadLockedReq miss cycles
system.cpu.dcache.LoadLockedReq_accesses::.cpu.data           50                       # number of LoadLockedReq accesses(hits+misses)
system.cpu.dcache.LoadLockedReq_accesses::total           50                       # number of LoadLockedReq accesses(hits+misses)
system.cpu.dcache.LoadLockedReq_miss_rate::.cpu.data     0.040000                       # miss rate for LoadLockedReq accesses
system.cpu.dcache.LoadLockedReq_miss_rate::total     0.040000                       # miss rate for LoadLockedReq accesses
system.cpu.dcache.LoadLockedReq_avg_miss_latency::.cpu.data       101500                       # average LoadLockedReq miss latency
system.cpu.dcache.LoadLockedReq_avg_miss_latency::total       101500                       # average LoadLockedReq miss latency
system.cpu.dcache.LoadLockedReq_mshr_misses::.cpu.data            2                       # number of LoadLockedReq MSHR misses
system.cpu.dcache.LoadLockedReq_mshr_misses::total            2                       # number of LoadLockedReq MSHR misses
system.cpu.dcache.LoadLockedReq_mshr_miss_latency::.cpu.data       201000                       # number of LoadLockedReq MSHR miss cycles
system.cpu.dcache.LoadLockedReq_mshr_miss_latency::total       201000                       # number of LoadLockedReq MSHR miss cycles
system.cpu.dcache.LoadLockedReq_mshr_miss_rate::.cpu.data     0.040000                       # mshr miss rate for LoadLockedReq accesses
system.cpu.dcache.LoadLockedReq_mshr_miss_rate::total     0.040000                       # mshr miss rate for LoadLockedReq accesses
system.cpu.dcache.LoadLockedReq_avg_mshr_miss_latency::.cpu.data       100500                       # average LoadLockedReq mshr miss latency
system.cpu.dcache.LoadLockedReq_avg_mshr_miss_latency::total       100500                       # average LoadLockedReq mshr miss latency
system.cpu.dcache.StoreCondReq_hits::.cpu.data           50                       # number of StoreCondReq hits
system.cpu.dcache.StoreCondReq_hits::total           50                       # number of StoreCondReq hits
system.cpu.dcache.StoreCondReq_accesses::.cpu.data           50                       # number of StoreCondReq accesses(hits+misses)
system.cpu.dcache.StoreCondReq_accesses::total           50                       # number of StoreCondReq accesses(hits+misses)
system.cpu.dcache.power_state.pwrStateResidencyTicks::UNDEFINED 516983213500                       # Cumulative time (in ticks) in various power states
system.cpu.dcache.tags.tagsinuse          1023.504218                       # Cycle average of tags in use
system.cpu.dcache.tags.total_refs            80899965                       # Total number of references to valid blocks.
system.cpu.dcache.tags.sampled_refs           5300269                       # Sample count of references to valid blocks.
system.cpu.dcache.tags.avg_refs             15.263370                       # Average number of references to valid blocks.
system.cpu.dcache.tags.warmup_cycle            195500                       # Cycle when the warmup percentage was hit.
system.cpu.dcache.tags.occ_blocks::.cpu.data  1023.504218                       # Average occupied blocks per requestor
system.cpu.dcache.tags.occ_percent::.cpu.data     0.999516                       # Average percentage of cache occupancy
system.cpu.dcache.tags.occ_percent::total     0.999516                       # Average percentage of cache occupancy
system.cpu.dcache.tags.occ_task_id_blocks::1024         1024                       # Occupied blocks per task id
system.cpu.dcache.tags.age_task_id_blocks_1024::0          103                       # Occupied blocks per task id
system.cpu.dcache.tags.age_task_id_blocks_1024::1          921                       # Occupied blocks per task id
system.cpu.dcache.tags.occ_task_id_percent::1024            1                       # Percentage of cache occupancy per task id
system.cpu.dcache.tags.tag_accesses         177695419                       # Number of tag accesses
system.cpu.dcache.tags.data_accesses        177695419                       # Number of data accesses
system.cpu.dcache.tags.power_state.pwrStateResidencyTicks::UNDEFINED 516983213500                       # Cumulative time (in ticks) in various power states
system.cpu.dtb.instHits                             0                       # ITB inst hits
system.cpu.dtb.instMisses                           0                       # ITB inst misses
system.cpu.dtb.readHits                             0                       # DTB read hits
system.cpu.dtb.readMisses                           0                       # DTB read misses
system.cpu.dtb.writeHits                            0                       # DTB write hits
system.cpu.dtb.writeMisses                          0                       # DTB write misses
system.cpu.dtb.inserts                              0                       # Number of times an entry is inserted into the TLB
system.cpu.dtb.flushTlb                             0                       # Number of times complete TLB was flushed
system.cpu.dtb.flushTlbMva                          0                       # Number of times TLB was flushed by MVA
system.cpu.dtb.flushTlbMvaAsid                      0                       # Number of times TLB was flushed by MVA & ASID
system.cpu.dtb.flushTlbAsid                         0                       # Number of times TLB was flushed by ASID
system.cpu.dtb.flushedEntries                       0                       # Number of entries that have been flushed from TLB
system.cpu.dtb.alignFaults                          0                       # Number of TLB faults due to alignment restrictions
system.cpu.dtb.prefetchFaults                       0                       # Number of TLB faults due to prefetch
system.cpu.dtb.domainFaults                         0                       # Number of TLB faults due to domain restrictions
system.cpu.dtb.permsFaults                          0                       # Number of TLB faults due to permissions restrictions
system.cpu.dtb.readAccesses                         0                       # DTB read accesses
system.cpu.dtb.writeAccesses                        0                       # DTB write accesses
system.cpu.dtb.instAccesses                         0                       # ITB inst accesses
system.cpu.dtb.hits                                 0                       # Total TLB (inst and data) hits
system.cpu.dtb.misses                               0                       # Total TLB (inst and data) misses
system.cpu.dtb.accesses                             0                       # Total TLB (inst and data) accesses
system.cpu.dtb.stage2_mmu.stage2_tlb.instHits            0                       # ITB inst hits
system.cpu.dtb.stage2_mmu.stage2_tlb.instMisses            0                       # ITB inst misses
system.cpu.dtb.stage2_mmu.stage2_tlb.readHits            0                       # DTB read hits
system.cpu.dtb.stage2_mmu.stage2_tlb.readMisses            0                       # DTB read misses
system.cpu.dtb.stage2_mmu.stage2_tlb.writeHits            0                       # DTB write hits
system.cpu.dtb.stage2_mmu.stage2_tlb.writeMisses            0                       # DTB write misses
system.cpu.dtb.stage2_mmu.stage2_tlb.inserts            0                       # Number of times an entry is inserted into the TLB
system.cpu.dtb.stage2_mmu.stage2_tlb.flushTlb            0                       # Number of times complete TLB was flushed
system.cpu.dtb.stage2_mmu.stage2_tlb.flushTlbMva            0                       # Number of times TLB was flushed by MVA
system.cpu.dtb.stage2_mmu.stage2_tlb.flushTlbMvaAsid            0                       # Number of times TLB was flushed by MVA & ASID
system.cpu.dtb.stage2_mmu.stage2_tlb.flushTlbAsid            0                       # Number of times TLB was flushed by ASID
system.cpu.dtb.stage2_mmu.stage2_tlb.flushedEntries            0                       # Number of entries that have been flushed from TLB
system.cpu.dtb.stage2_mmu.stage2_tlb.alignFaults            0                       # Number of TLB faults due to alignment restrictions
system.cpu.dtb.stage2_mmu.stage2_tlb.prefetchFaults            0                       # Number of TLB faults due to prefetch
system.cpu.dtb.stage2_mmu.stage2_tlb.domainFaults            0                       # Number of TLB faults due to domain restrictions
system.cpu.dtb.stage2_mmu.stage2_tlb.permsFaults            0                       # Number of TLB faults due to permissions restrictions
system.cpu.dtb.stage2_mmu.stage2_tlb.readAccesses            0                       # DTB read accesses
system.cpu.dtb.stage2_mmu.stage2_tlb.writeAccesses            0                       # DTB write accesses
system.cpu.dtb.stage2_mmu.stage2_tlb.instAccesses            0                       # ITB inst accesses
system.cpu.dtb.stage2_mmu.stage2_tlb.hits            0                       # Total TLB (inst and data) hits
system.cpu.dtb.stage2_mmu.stage2_tlb.misses            0                       # Total TLB (inst and data) misses
system.cpu.dtb.stage2_mmu.stage2_tlb.accesses            0                       # Total TLB (inst and data) accesses
system.cpu.dtb.stage2_mmu.stage2_tlb.walker.walks            0                       # Table walker walks requested
system.cpu.dtb.stage2_mmu.stage2_tlb.walker.requestOrigin_Requested::Data            0                       # Table walker requests started/completed, data/inst
system.cpu.dtb.stage2_mmu.stage2_tlb.walker.requestOrigin_Requested::Inst            0                       # Table walker requests started/completed, data/inst
system.cpu.dtb.stage2_mmu.stage2_tlb.walker.requestOrigin_Requested::total            0                       # Table walker requests started/completed, data/inst
system.cpu.dtb.stage2_mmu.stage2_tlb.walker.requestOrigin_Completed::Data            0                       # Table walker requests started/completed, data/inst
system.cpu.dtb.stage2_mmu.stage2_tlb.walker.requestOrigin_Completed::Inst            0                       # Table walker requests started/completed, data/inst
system.cpu.dtb.stage2_mmu.stage2_tlb.walker.requestOrigin_Completed::total            0                       # Table walker requests started/completed, data/inst
system.cpu.dtb.stage2_mmu.stage2_tlb.walker.requestOrigin::total            0                       # Table walker requests started/completed, data/inst
system.cpu.dtb.stage2_mmu.stage2_tlb.walker.power_state.pwrStateResidencyTicks::UNDEFINED 516983213500                       # Cumulative time (in ticks) in various power states
system.cpu.dtb.walker.walks                         0                       # Table walker walks requested
system.cpu.dtb.walker.requestOrigin_Requested::Data            0                       # Table walker requests started/completed, data/inst
system.cpu.dtb.walker.requestOrigin_Requested::Inst            0                       # Table walker requests started/completed, data/inst
system.cpu.dtb.walker.requestOrigin_Requested::total            0                       # Table walker requests started/completed, data/inst
system.cpu.dtb.walker.requestOrigin_Completed::Data            0                       # Table walker requests started/completed, data/inst
system.cpu.dtb.walker.requestOrigin_Completed::Inst            0                       # Table walker requests started/completed, data/inst
system.cpu.dtb.walker.requestOrigin_Completed::total            0                       # Table walker requests started/completed, data/inst
system.cpu.dtb.walker.requestOrigin::total            0                       # Table walker requests started/completed, data/inst
system.cpu.dtb.walker.power_state.pwrStateResidencyTicks::UNDEFINED 516983213500                       # Cumulative time (in ticks) in various power states
system.cpu.fetch2.intInstructions            45696474                       # Number of integer instructions successfully decoded
system.cpu.fetch2.fpInstructions                    0                       # Number of floating point instructions successfully decoded
system.cpu.fetch2.vecInstructions                   0                       # Number of SIMD instructions successfully decoded
system.cpu.fetch2.loadInstructions            1306956                       # Number of memory load instructions successfully decoded
system.cpu.fetch2.storeInstructions            169200                       # Number of memory store instructions successfully decoded
system.cpu.fetch2.amoInstructions                   0                       # Number of memory atomic instructions successfully decoded
system.cpu.icache.demand_hits::.cpu.inst     32462450                       # number of demand (read+write) hits
system.cpu.icache.demand_hits::total         32462450                       # number of demand (read+write) hits
system.cpu.icache.overall_hits::.cpu.inst     32462450                       # number of overall hits
system.cpu.icache.overall_hits::total        32462450                       # number of overall hits
system.cpu.icache.demand_misses::.cpu.inst          722                       # number of demand (read+write) misses
system.cpu.icache.demand_misses::total            722                       # number of demand (read+write) misses
system.cpu.icache.overall_misses::.cpu.inst          722                       # number of overall misses
system.cpu.icache.overall_misses::total           722                       # number of overall misses
system.cpu.icache.demand_miss_latency::.cpu.inst     58818000                       # number of demand (read+write) miss cycles
system.cpu.icache.demand_miss_latency::total     58818000                       # number of demand (read+write) miss cycles
system.cpu.icache.overall_miss_latency::.cpu.inst     58818000                       # number of overall miss cycles
system.cpu.icache.overall_miss_latency::total     58818000                       # number of overall miss cycles
system.cpu.icache.demand_accesses::.cpu.inst     32463172                       # number of demand (read+write) accesses
system.cpu.icache.demand_accesses::total     32463172                       # number of demand (read+write) accesses
system.cpu.icache.overall_accesses::.cpu.inst     32463172                       # number of overall (read+write) accesses
system.cpu.icache.overall_accesses::total     32463172                       # number of overall (read+write) accesses
system.cpu.icache.demand_miss_rate::.cpu.inst     0.000022                       # miss rate for demand accesses
system.cpu.icache.demand_miss_rate::total     0.000022                       # miss rate for demand accesses
system.cpu.icache.overall_miss_rate::.cpu.inst     0.000022                       # miss rate for overall accesses
system.cpu.icache.overall_miss_rate::total     0.000022                       # miss rate for overall accesses
system.cpu.icache.demand_avg_miss_latency::.cpu.inst 81465.373961                       # average overall miss latency
system.cpu.icache.demand_avg_miss_latency::total 81465.373961                       # average overall miss latency
system.cpu.icache.overall_avg_miss_latency::.cpu.inst 81465.373961                       # average overall miss latency
system.cpu.icache.overall_avg_miss_latency::total 81465.373961                       # average overall miss latency
system.cpu.icache.blocked_cycles::no_mshrs            0                       # number of cycles access was blocked
system.cpu.icache.blocked_cycles::no_targets            0                       # number of cycles access was blocked
system.cpu.icache.blocked::no_mshrs                 0                       # number of cycles access was blocked
system.cpu.icache.blocked::no_targets               0                       # number of cycles access was blocked
system.cpu.icache.avg_blocked_cycles::no_mshrs          nan                       # average number of cycles each access was blocked
system.cpu.icache.avg_blocked_cycles::no_targets          nan                       # average number of cycles each access was blocked
system.cpu.icache.writebacks::.writebacks          214                       # number of writebacks
system.cpu.icache.writebacks::total               214                       # number of writebacks
system.cpu.icache.demand_mshr_misses::.cpu.inst          722                       # number of demand (read+write) MSHR misses
system.cpu.icache.demand_mshr_misses::total          722                       # number of demand (read+write) MSHR misses
system.cpu.icache.overall_mshr_misses::.cpu.inst          722                       # number of overall MSHR misses
system.cpu.icache.overall_mshr_misses::total          722                       # number of overall MSHR misses
system.cpu.icache.demand_mshr_miss_latency::.cpu.inst     58096000                       # number of demand (read+write) MSHR miss cycles
system.cpu.icache.demand_mshr_miss_latency::total     58096000                       # number of demand (read+write) MSHR miss cycles
system.cpu.icache.overall_mshr_miss_latency::.cpu.inst     58096000                       # number of overall MSHR miss cycles
system.cpu.icache.overall_mshr_miss_latency::total     58096000                       # number of overall MSHR miss cycles
system.cpu.icache.demand_mshr_miss_rate::.cpu.inst     0.000022                       # mshr miss rate for demand accesses
system.cpu.icache.demand_mshr_miss_rate::total     0.000022                       # mshr miss rate for demand accesses
system.cpu.icache.overall_mshr_miss_rate::.cpu.inst     0.000022                       # mshr miss rate for overall accesses
system.cpu.icache.overall_mshr_miss_rate::total     0.000022                       # mshr miss rate for overall accesses
system.cpu.icache.demand_avg_mshr_miss_latency::.cpu.inst 80465.373961                       # average overall mshr miss latency
system.cpu.icache.demand_avg_mshr_miss_latency::total 80465.373961                       # average overall mshr miss latency
system.cpu.icache.overall_avg_mshr_miss_latency::.cpu.inst 80465.373961                       # average overall mshr miss latency
system.cpu.icache.overall_avg_mshr_miss_latency::total 80465.373961                       # average overall mshr miss latency
system.cpu.icache.replacements                    214                       # number of replacements
system.cpu.icache.ReadReq_hits::.cpu.inst     32462450                       # number of ReadReq hits
system.cpu.icache.ReadReq_hits::total        32462450                       # number of ReadReq hits
system.cpu.icache.ReadReq_misses::.cpu.inst          722                       # number of ReadReq misses
system.cpu.icache.ReadReq_misses::total           722                       # number of ReadReq misses
system.cpu.icache.ReadReq_miss_latency::.cpu.inst     58818000                       # number of ReadReq miss cycles
system.cpu.icache.ReadReq_miss_latency::total     58818000                       # number of ReadReq miss cycles
system.cpu.icache.ReadReq_accesses::.cpu.inst     32463172                       # number of ReadReq accesses(hits+misses)
system.cpu.icache.ReadReq_accesses::total     32463172                       # number of ReadReq accesses(hits+misses)
system.cpu.icache.ReadReq_miss_rate::.cpu.inst     0.000022                       # miss rate for ReadReq accesses
system.cpu.icache.ReadReq_miss_rate::total     0.000022                       # miss rate for ReadReq accesses
system.cpu.icache.ReadReq_avg_miss_latency::.cpu.inst 81465.373961                       # average ReadReq miss latency
system.cpu.icache.ReadReq_avg_miss_latency::total 81465.373961                       # average ReadReq miss latency
system.cpu.icache.ReadReq_mshr_misses::.cpu.inst          722                       # number of ReadReq MSHR misses
system.cpu.icache.ReadReq_mshr_misses::total          722                       # number of ReadReq MSHR misses
system.cpu.icache.ReadReq_mshr_miss_latency::.cpu.inst     58096000                       # number of ReadReq MSHR miss cycles
system.cpu.icache.ReadReq_mshr_miss_latency::total     58096000                       # number of ReadReq MSHR miss cycles
system.cpu.icache.ReadReq_mshr_miss_rate::.cpu.inst     0.000022                       # mshr miss rate for ReadReq accesses
system.cpu.icache.ReadReq_mshr_miss_rate::total     0.000022                       # mshr miss rate for ReadReq accesses
system.cpu.icache.ReadReq_avg_mshr_miss_latency::.cpu.inst 80465.373961                       # average ReadReq mshr miss latency
system.cpu.icache.ReadReq_avg_mshr_miss_latency::total 80465.373961                       # average ReadReq mshr miss latency
system.cpu.icache.power_state.pwrStateResidencyTicks::UNDEFINED 516983213500                       # Cumulative time (in ticks) in various power states
system.cpu.icache.tags.tagsinuse           468.271145                       # Cycle average of tags in use
system.cpu.icache.tags.total_refs            32463172                       # Total number of references to valid blocks.
system.cpu.icache.tags.sampled_refs               722                       # Sample count of references to valid blocks.
system.cpu.icache.tags.avg_refs          44962.842105                       # Average number of references to valid blocks.
system.cpu.icache.tags.warmup_cycle             87500                       # Cycle when the warmup percentage was hit.
system.cpu.icache.tags.occ_blocks::.cpu.inst   468.271145                       # Average occupied blocks per requestor
system.cpu.icache.tags.occ_percent::.cpu.inst     0.914592                       # Average percentage of cache occupancy
system.cpu.icache.tags.occ_percent::total     0.914592                       # Average percentage of cache occupancy
system.cpu.icache.tags.occ_task_id_blocks::1024          508                       # Occupied blocks per task id
system.cpu.icache.tags.age_task_id_blocks_1024::4          508                       # Occupied blocks per task id
system.cpu.icache.tags.occ_task_id_percent::1024     0.992188                       # Percentage of cache occupancy per task id
system.cpu.icache.tags.tag_accesses         259706098                       # Number of tag accesses
system.cpu.icache.tags.data_accesses        259706098                       # Number of data accesses
system.cpu.icache.tags.power_state.pwrStateResidencyTicks::UNDEFINED 516983213500                       # Cumulative time (in ticks) in various power states
system.cpu.itb.instHits                             0                       # ITB inst hits
system.cpu.itb.instMisses                           0                       # ITB inst misses
system.cpu.itb.readHits                             0                       # DTB read hits
system.cpu.itb.readMisses                           0                       # DTB read misses
system.cpu.itb.writeHits                            0                       # DTB write hits
system.cpu.itb.writeMisses                          0                       # DTB write misses
system.cpu.itb.inserts                              0                       # Number of times an entry is inserted into the TLB
system.cpu.itb.flushTlb                             0                       # Number of times complete TLB was flushed
system.cpu.itb.flushTlbMva                          0                       # Number of times TLB was flushed by MVA
system.cpu.itb.flushTlbMvaAsid                      0                       # Number of times TLB was flushed by MVA & ASID
system.cpu.itb.flushTlbAsid                         0                       # Number of times TLB was flushed by ASID
system.cpu.itb.flushedEntries                       0                       # Number of entries that have been flushed from TLB
system.cpu.itb.alignFaults                          0                       # Number of TLB faults due to alignment restrictions
system.cpu.itb.prefetchFaults                       0                       # Number of TLB faults due to prefetch
system.cpu.itb.domainFaults                         0                       # Number of TLB faults due to domain restrictions
system.cpu.itb.permsFaults                          0                       # Number of TLB faults due to permissions restrictions
system.cpu.itb.readAccesses                         0                       # DTB read accesses
system.cpu.itb.writeAccesses                        0                       # DTB write accesses
system.cpu.itb.instAccesses                         0                       # ITB inst accesses
system.cpu.itb.hits                                 0                       # Total TLB (inst and data) hits
system.cpu.itb.misses                               0                       # Total TLB (inst and data) misses
system.cpu.itb.accesses                             0                       # Total TLB (inst and data) accesses
system.cpu.itb.stage2_mmu.stage2_tlb.instHits            0                       # ITB inst hits
system.cpu.itb.stage2_mmu.stage2_tlb.instMisses            0                       # ITB inst misses
system.cpu.itb.stage2_mmu.stage2_tlb.readHits            0                       # DTB read hits
system.cpu.itb.stage2_mmu.stage2_tlb.readMisses            0                       # DTB read misses
system.cpu.itb.stage2_mmu.stage2_tlb.writeHits            0                       # DTB write hits
system.cpu.itb.stage2_mmu.stage2_tlb.writeMisses            0                       # DTB write misses
system.cpu.itb.stage2_mmu.stage2_tlb.inserts            0                       # Number of times an entry is inserted into the TLB
system.cpu.itb.stage2_mmu.stage2_tlb.flushTlb            0                       # Number of times complete TLB was flushed
system.cpu.itb.stage2_mmu.stage2_tlb.flushTlbMva            0                       # Number of times TLB was flushed by MVA
system.cpu.itb.stage2_mmu.stage2_tlb.flushTlbMvaAsid            0                       # Number of times TLB was flushed by MVA & ASID
system.cpu.itb.stage2_mmu.stage2_tlb.flushTlbAsid            0                       # Number of times TLB was flushed by ASID
system.cpu.itb.stage2_mmu.stage2_tlb.flushedEntries            0                       # Number of entries that have been flushed from TLB
system.cpu.itb.stage2_mmu.stage2_tlb.alignFaults            0                       # Number of TLB faults due to alignment restrictions
system.cpu.itb.stage2_mmu.stage2_tlb.prefetchFaults            0                       # Number of TLB faults due to prefetch
system.cpu.itb.stage2_mmu.stage2_tlb.domainFaults            0                       # Number of TLB faults due to domain restrictions
system.cpu.itb.stage2_mmu.stage2_tlb.permsFaults            0                       # Number of TLB faults due to permissions restrictions
system.cpu.itb.stage2_mmu.stage2_tlb.readAccesses            0                       # DTB read accesses
system.cpu.itb.stage2_mmu.stage2_tlb.writeAccesses            0                       # DTB write accesses
system.cpu.itb.stage2_mmu.stage2_tlb.instAccesses            0                       # ITB inst accesses
system.cpu.itb.stage2_mmu.stage2_tlb.hits            0                       # Total TLB (inst and data) hits
system.cpu.itb.stage2_mmu.stage2_tlb.misses            0                       # Total TLB (inst and data) misses
system.cpu.itb.stage2_mmu.stage2_tlb.accesses            0                       # Total TLB (inst and data) accesses
system.cpu.itb.stage2_mmu.stage2_tlb.walker.walks            0                       # Table walker walks requested
system.cpu.itb.stage2_mmu.stage2_tlb.walker.requestOrigin_Requested::Data            0                       # Table walker requests started/completed, data/inst
system.cpu.itb.stage2_mmu.stage2_tlb.walker.requestOrigin_Requested::Inst            0                       # Table walker requests started/completed, data/inst
system.cpu.itb.stage2_mmu.stage2_tlb.walker.requestOrigin_Requested::total            0                       # Table walker requests started/completed, data/inst
system.cpu.itb.stage2_mmu.stage2_tlb.walker.requestOrigin_Completed::Data            0                       # Table walker requests started/completed, data/inst
system.cpu.itb.stage2_mmu.stage2_tlb.walker.requestOrigin_Completed::Inst            0                       # Table walker requests started/completed, data/inst
system.cpu.itb.stage2_mmu.stage2_tlb.walker.requestOrigin_Completed::total            0                       # Table walker requests started/completed, data/inst
system.cpu.itb.stage2_mmu.stage2_tlb.walker.requestOrigin::total            0                       # Table walker requests started/completed, data/inst
system.cpu.itb.stage2_mmu.stage2_tlb.walker.power_state.pwrStateResidencyTicks::UNDEFINED 516983213500                       # Cumulative time (in ticks) in various power states
system.cpu.itb.walker.walks                         0                       # Table walker walks requested
system.cpu.itb.walker.requestOrigin_Requested::Data            0                       # Table walker requests started/completed, data/inst
system.cpu.itb.walker.requestOrigin_Requested::Inst            0                       # Table walker requests started/completed, data/inst
system.cpu.itb.walker.requestOrigin_Requested::total            0                       # Table walker requests started/completed, data/inst
system.cpu.itb.walker.requestOrigin_Completed::Data            0                       # Table walker requests started/completed, data/inst
system.cpu.itb.walker.requestOrigin_Completed::Inst            0                       # Table walker requests started/completed, data/inst
system.cpu.itb.walker.requestOrigin_Completed::total            0                       # Table walker requests started/completed, data/inst
system.cpu.itb.walker.requestOrigin::total            0                       # Table walker requests started/completed, data/inst
system.cpu.itb.walker.power_state.pwrStateResidencyTicks::UNDEFINED 516983213500                       # Cumulative time (in ticks) in various power states
system.cpu.power_state.pwrStateResidencyTicks::ON 516983213500                       # Cumulative time (in ticks) in various power states
system.cpu.thread_0.numInsts                100000001                       # Number of Instructions committed
system.cpu.thread_0.numOps                  184812628                       # Number of Ops committed
system.cpu.thread_0.numMemRefs                      0                       # Number of Memory References
system.cpu_clk_domain.clock                       500                       # Clock period in ticks
system.cpu_voltage_domain.voltage                   1                       # Voltage in Volts
system.l2.demand_hits::.cpu.inst                    9                       # number of demand (read+write) hits
system.l2.demand_hits::.cpu.data                   43                       # number of demand (read+write) hits
system.l2.demand_hits::total                       52                       # number of demand (read+write) hits
system.l2.overall_hits::.cpu.inst                   9                       # number of overall hits
system.l2.overall_hits::.cpu.data                  43                       # number of overall hits
system.l2.overall_hits::total                      52                       # number of overall hits
system.l2.demand_misses::.cpu.inst                713                       # number of demand (read+write) misses
system.l2.demand_misses::.cpu.data            5300226                       # number of demand (read+write) misses
system.l2.demand_misses::total                5300939                       # number of demand (read+write) misses
system.l2.overall_misses::.cpu.inst               713                       # number of overall misses
system.l2.overall_misses::.cpu.data           5300226                       # number of overall misses
system.l2.overall_misses::total               5300939                       # number of overall misses
system.l2.demand_miss_latency::.cpu.inst     56913500                       # number of demand (read+write) miss cycles
system.l2.demand_miss_latency::.cpu.data 427093484000                       # number of demand (read+write) miss cycles
system.l2.demand_miss_latency::total     427150397500                       # number of demand (read+write) miss cycles
system.l2.overall_miss_latency::.cpu.inst     56913500                       # number of overall miss cycles
system.l2.overall_miss_latency::.cpu.data 427093484000                       # number of overall miss cycles
system.l2.overall_miss_latency::total    427150397500                       # number of overall miss cycles
system.l2.demand_accesses::.cpu.inst              722                       # number of demand (read+write) accesses
system.l2.demand_accesses::.cpu.data          5300269                       # number of demand (read+write) accesses
system.l2.demand_accesses::total              5300991                       # number of demand (read+write) accesses
system.l2.overall_accesses::.cpu.inst             722                       # number of overall (read+write) accesses
system.l2.overall_accesses::.cpu.data         5300269                       # number of overall (read+write) accesses
system.l2.overall_accesses::total             5300991                       # number of overall (read+write) accesses
system.l2.demand_miss_rate::.cpu.inst        0.987535                       # miss rate for demand accesses
system.l2.demand_miss_rate::.cpu.data        0.999992                       # miss rate for demand accesses
system.l2.demand_miss_rate::total            0.999990                       # miss rate for demand accesses
system.l2.overall_miss_rate::.cpu.inst       0.987535                       # miss rate for overall accesses
system.l2.overall_miss_rate::.cpu.data       0.999992                       # miss rate for overall accesses
system.l2.overall_miss_rate::total           0.999990                       # miss rate for overall accesses
system.l2.demand_avg_miss_latency::.cpu.inst 79822.580645                       # average overall miss latency
system.l2.demand_avg_miss_latency::.cpu.data 80580.240163                       # average overall miss latency
system.l2.demand_avg_miss_latency::total 80580.138255                       # average overall miss latency
system.l2.overall_avg_miss_latency::.cpu.inst 79822.580645                       # average overall miss latency
system.l2.overall_avg_miss_latency::.cpu.data 80580.240163                       # average overall miss latency
system.l2.overall_avg_miss_latency::total 80580.138255                       # average overall miss latency
system.l2.blocked_cycles::no_mshrs                  0                       # number of cycles access was blocked
system.l2.blocked_cycles::no_targets                0                       # number of cycles access was blocked
system.l2.blocked::no_mshrs                         0                       # number of cycles access was blocked
system.l2.blocked::no_targets                       0                       # number of cycles access was blocked
system.l2.avg_blocked_cycles::no_mshrs            nan                       # average number of cycles each access was blocked
system.l2.avg_blocked_cycles::no_targets          nan                       # average number of cycles each access was blocked
system.l2.writebacks::.writebacks             5267302                       # number of writebacks
system.l2.writebacks::total                   5267302                       # number of writebacks
system.l2.demand_mshr_hits::.cpu.data               2                       # number of demand (read+write) MSHR hits
system.l2.demand_mshr_hits::total                   2                       # number of demand (read+write) MSHR hits
system.l2.overall_mshr_hits::.cpu.data              2                       # number of overall MSHR hits
system.l2.overall_mshr_hits::total                  2                       # number of overall MSHR hits
system.l2.demand_mshr_misses::.cpu.inst           713                       # number of demand (read+write) MSHR misses
system.l2.demand_mshr_misses::.cpu.data       5300224                       # number of demand (read+write) MSHR misses
system.l2.demand_mshr_misses::total           5300937                       # number of demand (read+write) MSHR misses
system.l2.overall_mshr_misses::.cpu.inst          713                       # number of overall MSHR misses
system.l2.overall_mshr_misses::.cpu.data      5300224                       # number of overall MSHR misses
system.l2.overall_mshr_misses::total          5300937                       # number of overall MSHR misses
system.l2.demand_mshr_miss_latency::.cpu.inst     49783500                       # number of demand (read+write) MSHR miss cycles
system.l2.demand_mshr_miss_latency::.cpu.data 374091109500                       # number of demand (read+write) MSHR miss cycles
system.l2.demand_mshr_miss_latency::total 374140893000                       # number of demand (read+write) MSHR miss cycles
system.l2.overall_mshr_miss_latency::.cpu.inst     49783500                       # number of overall MSHR miss cycles
system.l2.overall_mshr_miss_latency::.cpu.data 374091109500                       # number of overall MSHR miss cycles
system.l2.overall_mshr_miss_latency::total 374140893000                       # number of overall MSHR miss cycles
system.l2.demand_mshr_miss_rate::.cpu.inst     0.987535                       # mshr miss rate for demand accesses
system.l2.demand_mshr_miss_rate::.cpu.data     0.999992                       # mshr miss rate for demand accesses
system.l2.demand_mshr_miss_rate::total       0.999990                       # mshr miss rate for demand accesses
system.l2.overall_mshr_miss_rate::.cpu.inst     0.987535                       # mshr miss rate for overall accesses
system.l2.overall_mshr_miss_rate::.cpu.data     0.999992                       # mshr miss rate for overall accesses
system.l2.overall_mshr_miss_rate::total      0.999990                       # mshr miss rate for overall accesses
system.l2.demand_avg_mshr_miss_latency::.cpu.inst 69822.580645                       # average overall mshr miss latency
system.l2.demand_avg_mshr_miss_latency::.cpu.data 70580.245193                       # average overall mshr miss latency
system.l2.demand_avg_mshr_miss_latency::total 70580.143284                       # average overall mshr miss latency
system.l2.overall_avg_mshr_miss_latency::.cpu.inst 69822.580645                       # average overall mshr miss latency
system.l2.overall_avg_mshr_miss_latency::.cpu.data 70580.245193                       # average overall mshr miss latency
system.l2.overall_avg_mshr_miss_latency::total 70580.143284                       # average overall mshr miss latency
system.l2.replacements                        5268339                       # number of replacements
system.l2.WritebackDirty_hits::.writebacks      5299072                       # number of WritebackDirty hits
system.l2.WritebackDirty_hits::total          5299072                       # number of WritebackDirty hits
system.l2.WritebackDirty_accesses::.writebacks      5299072                       # number of WritebackDirty accesses(hits+misses)
system.l2.WritebackDirty_accesses::total      5299072                       # number of WritebackDirty accesses(hits+misses)
system.l2.WritebackClean_hits::.writebacks          214                       # number of WritebackClean hits
system.l2.WritebackClean_hits::total              214                       # number of WritebackClean hits
system.l2.WritebackClean_accesses::.writebacks          214                       # number of WritebackClean accesses(hits+misses)
system.l2.WritebackClean_accesses::total          214                       # number of WritebackClean accesses(hits+misses)
system.l2.ReadExReq_hits::.cpu.data                12                       # number of ReadExReq hits
system.l2.ReadExReq_hits::total                    12                       # number of ReadExReq hits
system.l2.ReadExReq_misses::.cpu.data         5300036                       # number of ReadExReq misses
system.l2.ReadExReq_misses::total             5300036                       # number of ReadExReq misses
system.l2.ReadExReq_miss_latency::.cpu.data 427076091500                       # number of ReadExReq miss cycles
system.l2.ReadExReq_miss_latency::total  427076091500                       # number of ReadExReq miss cycles
system.l2.ReadExReq_accesses::.cpu.data       5300048                       # number of ReadExReq accesses(hits+misses)
system.l2.ReadExReq_accesses::total           5300048                       # number of ReadExReq accesses(hits+misses)
system.l2.ReadExReq_miss_rate::.cpu.data     0.999998                       # miss rate for ReadExReq accesses
system.l2.ReadExReq_miss_rate::total         0.999998                       # miss rate for ReadExReq accesses
system.l2.ReadExReq_avg_miss_latency::.cpu.data 80579.847288                       # average ReadExReq miss latency
system.l2.ReadExReq_avg_miss_latency::total 80579.847288                       # average ReadExReq miss latency
system.l2.ReadExReq_mshr_misses::.cpu.data      5300036                       # number of ReadExReq MSHR misses
system.l2.ReadExReq_mshr_misses::total        5300036                       # number of ReadExReq MSHR misses
system.l2.ReadExReq_mshr_miss_latency::.cpu.data 374075731500                       # number of ReadExReq MSHR miss cycles
system.l2.ReadExReq_mshr_miss_latency::total 374075731500                       # number of ReadExReq MSHR miss cycles
system.l2.ReadExReq_mshr_miss_rate::.cpu.data     0.999998                       # mshr miss rate for ReadExReq accesses
system.l2.ReadExReq_mshr_miss_rate::total     0.999998                       # mshr miss rate for ReadExReq accesses
system.l2.ReadExReq_avg_mshr_miss_latency::.cpu.data 70579.847288                       # average ReadExReq mshr miss latency
system.l2.ReadExReq_avg_mshr_miss_latency::total 70579.847288                       # average ReadExReq mshr miss latency
system.l2.ReadCleanReq_hits::.cpu.inst              9                       # number of ReadCleanReq hits
system.l2.ReadCleanReq_hits::total                  9                       # number of ReadCleanReq hits
system.l2.ReadCleanReq_misses::.cpu.inst          713                       # number of ReadCleanReq misses
system.l2.ReadCleanReq_misses::total              713                       # number of ReadCleanReq misses
system.l2.ReadCleanReq_miss_latency::.cpu.inst     56913500                       # number of ReadCleanReq miss cycles
system.l2.ReadCleanReq_miss_latency::total     56913500                       # number of ReadCleanReq miss cycles
system.l2.ReadCleanReq_accesses::.cpu.inst          722                       # number of ReadCleanReq accesses(hits+misses)
system.l2.ReadCleanReq_accesses::total            722                       # number of ReadCleanReq accesses(hits+misses)
system.l2.ReadCleanReq_miss_rate::.cpu.inst     0.987535                       # miss rate for ReadCleanReq accesses
system.l2.ReadCleanReq_miss_rate::total      0.987535                       # miss rate for ReadCleanReq accesses
system.l2.ReadCleanReq_avg_miss_latency::.cpu.inst 79822.580645                       # average ReadCleanReq miss latency
system.l2.ReadCleanReq_avg_miss_latency::total 79822.580645                       # average ReadCleanReq miss latency
system.l2.ReadCleanReq_mshr_misses::.cpu.inst          713                       # number of ReadCleanReq MSHR misses
system.l2.ReadCleanReq_mshr_misses::total          713                       # number of ReadCleanReq MSHR misses
system.l2.ReadCleanReq_mshr_miss_latency::.cpu.inst     49783500                       # number of ReadCleanReq MSHR miss cycles
system.l2.ReadCleanReq_mshr_miss_latency::total     49783500                       # number of ReadCleanReq MSHR miss cycles
system.l2.ReadCleanReq_mshr_miss_rate::.cpu.inst     0.987535                       # mshr miss rate for ReadCleanReq accesses
system.l2.ReadCleanReq_mshr_miss_rate::total     0.987535                       # mshr miss rate for ReadCleanReq accesses
system.l2.ReadCleanReq_avg_mshr_miss_latency::.cpu.inst 69822.580645                       # average ReadCleanReq mshr miss latency
system.l2.ReadCleanReq_avg_mshr_miss_latency::total 69822.580645                       # average ReadCleanReq mshr miss latency
system.l2.ReadSharedReq_hits::.cpu.data            31                       # number of ReadSharedReq hits
system.l2.ReadSharedReq_hits::total                31                       # number of ReadSharedReq hits
system.l2.ReadSharedReq_misses::.cpu.data          190                       # number of ReadSharedReq misses
system.l2.ReadSharedReq_misses::total             190                       # number of ReadSharedReq misses
system.l2.ReadSharedReq_miss_latency::.cpu.data     17392500                       # number of ReadSharedReq miss cycles
system.l2.ReadSharedReq_miss_latency::total     17392500                       # number of ReadSharedReq miss cycles
system.l2.ReadSharedReq_accesses::.cpu.data          221                       # number of ReadSharedReq accesses(hits+misses)
system.l2.ReadSharedReq_accesses::total           221                       # number of ReadSharedReq accesses(hits+misses)
system.l2.ReadSharedReq_miss_rate::.cpu.data     0.859729                       # miss rate for ReadSharedReq accesses
system.l2.ReadSharedReq_miss_rate::total     0.859729                       # miss rate for ReadSharedReq accesses
system.l2.ReadSharedReq_avg_miss_latency::.cpu.data 91539.473684                       # average ReadSharedReq miss latency
system.l2.ReadSharedReq_avg_miss_latency::total 91539.473684                       # average ReadSharedReq miss latency
system.l2.ReadSharedReq_mshr_hits::.cpu.data            2                       # number of ReadSharedReq MSHR hits
system.l2.ReadSharedReq_mshr_hits::total            2                       # number of ReadSharedReq MSHR hits
system.l2.ReadSharedReq_mshr_misses::.cpu.data          188                       # number of ReadSharedReq MSHR misses
system.l2.ReadSharedReq_mshr_misses::total          188                       # number of ReadSharedReq MSHR misses
system.l2.ReadSharedReq_mshr_miss_latency::.cpu.data     15378000                       # number of ReadSharedReq MSHR miss cycles
system.l2.ReadSharedReq_mshr_miss_latency::total     15378000                       # number of ReadSharedReq MSHR miss cycles
system.l2.ReadSharedReq_mshr_miss_rate::.cpu.data     0.850679                       # mshr miss rate for ReadSharedReq accesses
system.l2.ReadSharedReq_mshr_miss_rate::total     0.850679                       # mshr miss rate for ReadSharedReq accesses
system.l2.ReadSharedReq_avg_mshr_miss_latency::.cpu.data 81797.872340                       # average ReadSharedReq mshr miss latency
system.l2.ReadSharedReq_avg_mshr_miss_latency::total 81797.872340                       # average ReadSharedReq mshr miss latency
system.l2.power_state.pwrStateResidencyTicks::UNDEFINED 516983213500                       # Cumulative time (in ticks) in various power states
system.l2.tags.tagsinuse                 32543.925016                       # Cycle average of tags in use
system.l2.tags.total_refs                    10600423                       # Total number of references to valid blocks.
system.l2.tags.sampled_refs                   5301107                       # Sample count of references to valid blocks.
system.l2.tags.avg_refs                      1.999662                       # Average number of references to valid blocks.
system.l2.tags.warmup_cycle                     77000                       # Cycle when the warmup percentage was hit.
system.l2.tags.occ_blocks::.writebacks       0.963051                       # Average occupied blocks per requestor
system.l2.tags.occ_blocks::.cpu.inst         5.434290                       # Average occupied blocks per requestor
system.l2.tags.occ_blocks::.cpu.data     32537.527674                       # Average occupied blocks per requestor
system.l2.tags.occ_percent::.writebacks      0.000029                       # Average percentage of cache occupancy
system.l2.tags.occ_percent::.cpu.inst        0.000166                       # Average percentage of cache occupancy
system.l2.tags.occ_percent::.cpu.data        0.992967                       # Average percentage of cache occupancy
system.l2.tags.occ_percent::total            0.993162                       # Average percentage of cache occupancy
system.l2.tags.occ_task_id_blocks::1024         32768                       # Occupied blocks per task id
system.l2.tags.age_task_id_blocks_1024::0          103                       # Occupied blocks per task id
system.l2.tags.age_task_id_blocks_1024::1          929                       # Occupied blocks per task id
system.l2.tags.age_task_id_blocks_1024::2         9269                       # Occupied blocks per task id
system.l2.tags.age_task_id_blocks_1024::3        22467                       # Occupied blocks per task id
system.l2.tags.occ_task_id_percent::1024            1                       # Percentage of cache occupancy per task id
system.l2.tags.tag_accesses                  90104507                       # Number of tag accesses
system.l2.tags.data_accesses                 90104507                       # Number of data accesses
system.l2.tags.power_state.pwrStateResidencyTicks::UNDEFINED 516983213500                       # Cumulative time (in ticks) in various power states
system.mem_ctrls.avgPriority_.writebacks::samples   5267302.00                       # Average QoS priority value for accepted requests
system.mem_ctrls.avgPriority_.cpu.inst::samples       713.00                       # Average QoS priority value for accepted requests
system.mem_ctrls.avgPriority_.cpu.data::samples   5300224.00                       # Average QoS priority value for accepted requests
system.mem_ctrls.priorityMinLatency      0.000000018750                       # per QoS priority minimum request to response latency (s)
system.mem_ctrls.priorityMaxLatency      0.000542290500                       # per QoS priority maximum request to response latency (s)
system.mem_ctrls.numReadWriteTurnArounds       329164                       # Number of turnarounds from READ to WRITE
system.mem_ctrls.numWriteReadTurnArounds       329164                       # Number of turnarounds from WRITE to READ
system.mem_ctrls.numStayReadState            15662876                       # Number of times bus staying in READ state
system.mem_ctrls.numStayWriteState            4947058                       # Number of times bus staying in WRITE state
system.mem_ctrls.readReqs                     5300937                       # Number of read requests accepted
system.mem_ctrls.writeReqs                    5267302                       # Number of write requests accepted
system.mem_ctrls.readBursts                   5300937                       # Number of controller read bursts, including those serviced by the write queue
system.mem_ctrls.writeBursts                  5267302                       # Number of controller write bursts, including those merged in the write queue
system.mem_ctrls.servicedByWrQ                      0                       # Number of controller read bursts serviced by the write queue
system.mem_ctrls.mergedWrBursts                     0                       # Number of controller write bursts merged with an existing one
system.mem_ctrls.neitherReadNorWriteReqs            0                       # Number of requests that are neither read nor write
system.mem_ctrls.avgRdQLen                       1.00                       # Average read queue length when enqueuing
system.mem_ctrls.avgWrQLen                      25.84                       # Average write queue length when enqueuing
system.mem_ctrls.numRdRetry                         0                       # Number of times read queue was full causing retry
system.mem_ctrls.numWrRetry                         0                       # Number of times write queue was full causing retry
system.mem_ctrls.readPktSize::0                     0                       # Read request sizes (log2)
system.mem_ctrls.readPktSize::1                     0                       # Read request sizes (log2)
system.mem_ctrls.readPktSize::2                     0                       # Read request sizes (log2)
system.mem_ctrls.readPktSize::3                     0                       # Read request sizes (log2)
system.mem_ctrls.readPktSize::4                     0                       # Read request sizes (log2)
system.mem_ctrls.readPktSize::5                     0                       # Read request sizes (log2)
system.mem_ctrls.readPktSize::6               5300937                       # Read request sizes (log2)
system.mem_ctrls.writePktSize::0                    0                       # Write request sizes (log2)
system.mem_ctrls.writePktSize::1                    0                       # Write request sizes (log2)
system.mem_ctrls.writePktSize::2                    0                       # Write request sizes (log2)
system.mem_ctrls.writePktSize::3                    0                       # Write request sizes (log2)
system.mem_ctrls.writePktSize::4                    0                       # Write request sizes (log2)
[...]
system.mem_ctrls.dram.bw_write::.writebacks    652066294                       # Write bandwidth from this memory (bytes/s)
system.mem_ctrls.dram.bw_write::total       652066294                       # Write bandwidth from this memory (bytes/s)
system.mem_ctrls.dram.bw_total::.writebacks    652066294                       # Total bandwidth to/from this memory (bytes/s)
system.mem_ctrls.dram.bw_total::.cpu.inst        88266                       # Total bandwidth to/from this memory (bytes/s)
system.mem_ctrls.dram.bw_total::.cpu.data    656141877                       # Total bandwidth to/from this memory (bytes/s)
system.mem_ctrls.dram.bw_total::total      1308296437                       # Total bandwidth to/from this memory (bytes/s)
system.mem_ctrls.dram.readBursts              5300937                       # Number of DRAM read bursts
system.mem_ctrls.dram.writeBursts             5267279                       # Number of DRAM write bursts
system.mem_ctrls.dram.perBankRdBursts::0       331301                       # Per bank write bursts
system.mem_ctrls.dram.perBankRdBursts::1       331363                       # Per bank write bursts
system.mem_ctrls.dram.perBankRdBursts::2       331154                       # Per bank write bursts
system.mem_ctrls.dram.perBankRdBursts::3       331272                       # Per bank write bursts
system.mem_ctrls.dram.perBankRdBursts::4       331429                       # Per bank write bursts
system.mem_ctrls.dram.perBankRdBursts::5       331547                       # Per bank write bursts
system.mem_ctrls.dram.perBankRdBursts::6       331405                       # Per bank write bursts
system.mem_ctrls.dram.perBankRdBursts::7       331336                       # Per bank write bursts
system.mem_ctrls.dram.perBankRdBursts::8       331379                       # Per bank write bursts
system.mem_ctrls.dram.perBankRdBursts::9       331357                       # Per bank write bursts
system.mem_ctrls.dram.perBankRdBursts::10       331213                       # Per bank write bursts
system.mem_ctrls.dram.perBankRdBursts::11       331263                       # Per bank write bursts
system.mem_ctrls.dram.perBankRdBursts::12       331191                       # Per bank write bursts
system.mem_ctrls.dram.perBankRdBursts::13       331161                       # Per bank write bursts
system.mem_ctrls.dram.perBankRdBursts::14       331271                       # Per bank write bursts
system.mem_ctrls.dram.perBankRdBursts::15       331295                       # Per bank write bursts
system.mem_ctrls.dram.perBankWrBursts::0       329206                       # Per bank write bursts
system.mem_ctrls.dram.perBankWrBursts::1       329198                       # Per bank write bursts
system.mem_ctrls.dram.perBankWrBursts::2       329070                       # Per bank write bursts
system.mem_ctrls.dram.perBankWrBursts::3       329161                       # Per bank write bursts
system.mem_ctrls.dram.perBankWrBursts::4       329332                       # Per bank write bursts
system.mem_ctrls.dram.perBankWrBursts::5       329420                       # Per bank write bursts
system.mem_ctrls.dram.perBankWrBursts::6       329324                       # Per bank write bursts
system.mem_ctrls.dram.perBankWrBursts::7       329264                       # Per bank write bursts
system.mem_ctrls.dram.perBankWrBursts::8       329274                       # Per bank write bursts
system.mem_ctrls.dram.perBankWrBursts::9       329261                       # Per bank write bursts
system.mem_ctrls.dram.perBankWrBursts::10       329124                       # Per bank write bursts
system.mem_ctrls.dram.perBankWrBursts::11       329088                       # Per bank write bursts
system.mem_ctrls.dram.perBankWrBursts::12       329088                       # Per bank write bursts
system.mem_ctrls.dram.perBankWrBursts::13       329089                       # Per bank write bursts
system.mem_ctrls.dram.perBankWrBursts::14       329166                       # Per bank write bursts
system.mem_ctrls.dram.perBankWrBursts::15       329214                       # Per bank write bursts
system.mem_ctrls.dram.totQLat             58662200000                       # Total ticks spent queuing
system.mem_ctrls.dram.totBusLat           26504685000                       # Total ticks spent in databus transfers
system.mem_ctrls.dram.totMemAccLat       158054768750                       # Total ticks spent from burst creation until serviced by the DRAM
system.mem_ctrls.dram.avgQLat                11066.38                       # Average queueing delay per DRAM burst
system.mem_ctrls.dram.avgBusLat               5000.00                       # Average bus latency per DRAM burst
system.mem_ctrls.dram.avgMemAccLat           29816.38                       # Average memory access latency per DRAM burst
system.mem_ctrls.dram.readRowHits             4869875                       # Number of row buffer hits during reads
system.mem_ctrls.dram.writeRowHits            4892614                       # Number of row buffer hits during writes
system.mem_ctrls.dram.readRowHitRate            91.87                       # Row buffer hit rate for reads
system.mem_ctrls.dram.writeRowHitRate           92.89                       # Row buffer hit rate for writes
system.mem_ctrls.dram.bytesPerActivate::samples       805725                       # Bytes accessed per row activation
system.mem_ctrls.dram.bytesPerActivate::mean   839.449490                       # Bytes accessed per row activation
system.mem_ctrls.dram.bytesPerActivate::gmean   741.579863                       # Bytes accessed per row activation
system.mem_ctrls.dram.bytesPerActivate::stdev   292.921108                       # Bytes accessed per row activation
system.mem_ctrls.dram.bytesPerActivate::0-127        19332      2.40%      2.40% # Bytes accessed per row activation
system.mem_ctrls.dram.bytesPerActivate::128-255        29981      3.72%      6.12% # Bytes accessed per row activation
system.mem_ctrls.dram.bytesPerActivate::256-383        29251      3.63%      9.75% # Bytes accessed per row activation
system.mem_ctrls.dram.bytesPerActivate::384-511        54493      6.76%     16.51% # Bytes accessed per row activation
system.mem_ctrls.dram.bytesPerActivate::512-639        54439      6.76%     23.27% # Bytes accessed per row activation
system.mem_ctrls.dram.bytesPerActivate::640-767        39492      4.90%     28.17% # Bytes accessed per row activation
system.mem_ctrls.dram.bytesPerActivate::768-895        23616      2.93%     31.10% # Bytes accessed per row activation
system.mem_ctrls.dram.bytesPerActivate::896-1023        30757      3.82%     34.92% # Bytes accessed per row activation
system.mem_ctrls.dram.bytesPerActivate::1024-1151       524364     65.08%    100.00% # Bytes accessed per row activation
system.mem_ctrls.dram.bytesPerActivate::total       805725                       # Bytes accessed per row activation
system.mem_ctrls.dram.bytesRead             339259968                       # Total number of bytes read from DRAM
system.mem_ctrls.dram.bytesWritten          337105856                       # Total number of bytes written to DRAM
system.mem_ctrls.dram.avgRdBW              656.230143                       # Average DRAM read bandwidth in MiBytes/s
system.mem_ctrls.dram.avgWrBW              652.063447                       # Average DRAM write bandwidth in MiBytes/s
system.mem_ctrls.dram.peakBW                 12800.00                       # Theoretical peak bandwidth in MiByte/s
system.mem_ctrls.dram.busUtil                   10.22                       # Data bus utilization in percentage
system.mem_ctrls.dram.busUtilRead                5.13                       # Data bus utilization in percentage for reads
system.mem_ctrls.dram.busUtilWrite               5.09                       # Data bus utilization in percentage for writes
system.mem_ctrls.dram.pageHitRate               92.38                       # Row buffer hit rate, read and write combined
system.mem_ctrls.dram.power_state.pwrStateResidencyTicks::UNDEFINED 516983213500                       # Cumulative time (in ticks) in various power states
system.mem_ctrls.dram.rank0.actEnergy      2876027700                       # Energy for activate commands per rank (pJ)
system.mem_ctrls.dram.rank0.preEnergy      1528637385                       # Energy for precharge commands per rank (pJ)
system.mem_ctrls.dram.rank0.readEnergy    18926761980                       # Energy for read commands per rank (pJ)
system.mem_ctrls.dram.rank0.writeEnergy   13749349500                       # Energy for write commands per rank (pJ)
system.mem_ctrls.dram.rank0.refreshEnergy 40809637440.000008                       # Energy for refresh commands per rank (pJ)
system.mem_ctrls.dram.rank0.actBackEnergy 123760078650                       # Energy for active background per rank (pJ)
system.mem_ctrls.dram.rank0.preBackEnergy  94302540480                       # Energy for precharge background per rank (pJ)
system.mem_ctrls.dram.rank0.actPowerDownEnergy            0                       # Energy for active power-down per rank (pJ)
system.mem_ctrls.dram.rank0.prePowerDownEnergy            0                       # Energy for precharge power-down per rank (pJ)
system.mem_ctrls.dram.rank0.selfRefreshEnergy            0                       # Energy for self refresh per rank (pJ)
system.mem_ctrls.dram.rank0.totalEnergy  295953033135                       # Total energy per rank (pJ)
system.mem_ctrls.dram.rank0.averagePower   572.461591                       # Core power per rank (mW)
system.mem_ctrls.dram.rank0.totalIdleTime            0                       # Total Idle time Per DRAM Rank
system.mem_ctrls.dram.rank0.pwrStateTime::IDLE 241337183000                       # Time in different power states
system.mem_ctrls.dram.rank0.pwrStateTime::REF  17262960000                       # Time in different power states
system.mem_ctrls.dram.rank0.pwrStateTime::SREF            0                       # Time in different power states
system.mem_ctrls.dram.rank0.pwrStateTime::PRE_PDN            0                       # Time in different power states
system.mem_ctrls.dram.rank0.pwrStateTime::ACT 258383070500                       # Time in different power states
system.mem_ctrls.dram.rank0.pwrStateTime::ACT_PDN            0                       # Time in different power states
system.mem_ctrls.dram.rank1.actEnergy      2876863080                       # Energy for activate commands per rank (pJ)
system.mem_ctrls.dram.rank1.preEnergy      1529088990                       # Energy for precharge commands per rank (pJ)
system.mem_ctrls.dram.rank1.readEnergy    18921928200                       # Energy for read commands per rank (pJ)
system.mem_ctrls.dram.rank1.writeEnergy   13745846880                       # Energy for write commands per rank (pJ)
system.mem_ctrls.dram.rank1.refreshEnergy 40809637440.000008                       # Energy for refresh commands per rank (pJ)
system.mem_ctrls.dram.rank1.actBackEnergy 123653272620                       # Energy for active background per rank (pJ)
system.mem_ctrls.dram.rank1.preBackEnergy  94392482400                       # Energy for precharge background per rank (pJ)
system.mem_ctrls.dram.rank1.actPowerDownEnergy            0                       # Energy for active power-down per rank (pJ)
system.mem_ctrls.dram.rank1.prePowerDownEnergy            0                       # Energy for precharge power-down per rank (pJ)
system.mem_ctrls.dram.rank1.selfRefreshEnergy            0                       # Energy for self refresh per rank (pJ)
system.mem_ctrls.dram.rank1.totalEnergy  295929119610                       # Total energy per rank (pJ)
system.mem_ctrls.dram.rank1.averagePower   572.415336                       # Core power per rank (mW)
system.mem_ctrls.dram.rank1.totalIdleTime            0                       # Total Idle time Per DRAM Rank
system.mem_ctrls.dram.rank1.pwrStateTime::IDLE 241570388750                       # Time in different power states
system.mem_ctrls.dram.rank1.pwrStateTime::REF  17262960000                       # Time in different power states
system.mem_ctrls.dram.rank1.pwrStateTime::SREF            0                       # Time in different power states
system.mem_ctrls.dram.rank1.pwrStateTime::PRE_PDN            0                       # Time in different power states
system.mem_ctrls.dram.rank1.pwrStateTime::ACT 258149864750                       # Time in different power states
system.mem_ctrls.dram.rank1.pwrStateTime::ACT_PDN            0                       # Time in different power states
system.mem_ctrls.power_state.pwrStateResidencyTicks::UNDEFINED 516983213500                       # Cumulative time (in ticks) in various power states
system.membus.trans_dist::ReadResp                901                       # Transaction distribution
system.membus.trans_dist::WritebackDirty      5267302                       # Transaction distribution
system.membus.trans_dist::CleanEvict              357                       # Transaction distribution
system.membus.trans_dist::ReadExReq           5300036                       # Transaction distribution
system.membus.trans_dist::ReadExResp          5300036                       # Transaction distribution
system.membus.trans_dist::ReadSharedReq           901                       # Transaction distribution
system.membus.pkt_count_system.l2.mem_side_port::system.mem_ctrls.port     15869533                       # Packet count per connected requestor and responder (bytes)
system.membus.pkt_count::total               15869533                       # Packet count per connected requestor and responder (bytes)
system.membus.pkt_size_system.l2.mem_side_port::system.mem_ctrls.port    676367296                       # Cumulative packet size per connected requestor and responder (bytes)
system.membus.pkt_size::total               676367296                       # Cumulative packet size per connected requestor and responder (bytes)
system.membus.snoops                                0                       # Total snoops (count)
system.membus.snoopTraffic                          0                       # Total snoop traffic (bytes)
system.membus.snoop_fanout::samples           5300937                       # Request fanout histogram
system.membus.snoop_fanout::mean                    0                       # Request fanout histogram
system.membus.snoop_fanout::stdev                   0                       # Request fanout histogram
system.membus.snoop_fanout::underflows              0      0.00%      0.00% # Request fanout histogram
system.membus.snoop_fanout::0                 5300937    100.00%    100.00% # Request fanout histogram
system.membus.snoop_fanout::1                       0      0.00%    100.00% # Request fanout histogram
system.membus.snoop_fanout::overflows               0      0.00%    100.00% # Request fanout histogram
system.membus.snoop_fanout::min_value               0                       # Request fanout histogram
system.membus.snoop_fanout::max_value               0                       # Request fanout histogram
system.membus.snoop_fanout::total             5300937                       # Request fanout histogram
system.membus.power_state.pwrStateResidencyTicks::UNDEFINED 516983213500                       # Cumulative time (in ticks) in various power states
system.membus.reqLayer0.occupancy         31660654500                       # Layer occupancy (ticks)
system.membus.reqLayer0.utilization               6.1                       # Layer utilization (%)
system.membus.respLayer1.occupancy        27879910750                       # Layer occupancy (ticks)
system.membus.respLayer1.utilization              5.4                       # Layer utilization (%)
system.tol2bus.trans_dist::ReadResp               943                       # Transaction distribution
system.tol2bus.trans_dist::WritebackDirty     10566374                       # Transaction distribution
system.tol2bus.trans_dist::WritebackClean          214                       # Transaction distribution
system.tol2bus.trans_dist::CleanEvict            1210                       # Transaction distribution
system.tol2bus.trans_dist::ReadExReq          5300048                       # Transaction distribution
system.tol2bus.trans_dist::ReadExResp         5300048                       # Transaction distribution
system.tol2bus.trans_dist::ReadCleanReq           722                       # Transaction distribution
system.tol2bus.trans_dist::ReadSharedReq          221                       # Transaction distribution
system.tol2bus.pkt_count_system.cpu.icache.mem_side_port::system.l2.cpu_side_port         1658                       # Packet count per connected requestor and responder (bytes)
system.tol2bus.pkt_count_system.cpu.dcache.mem_side_port::system.l2.cpu_side_port     15899783                       # Packet count per connected requestor and responder (bytes)
system.tol2bus.pkt_count::total              15901441                       # Packet count per connected requestor and responder (bytes)
system.tol2bus.pkt_size_system.cpu.icache.mem_side_port::system.l2.cpu_side_port        59904                       # Cumulative packet size per connected requestor and responder (bytes)
system.tol2bus.pkt_size_system.cpu.dcache.mem_side_port::system.l2.cpu_side_port    678357824                       # Cumulative packet size per connected requestor and responder (bytes)
system.tol2bus.pkt_size::total              678417728                       # Cumulative packet size per connected requestor and responder (bytes)
system.tol2bus.snoops                         5268339                       # Total snoops (count)
system.tol2bus.snoopTraffic                 337107328                       # Total snoop traffic (bytes)
system.tol2bus.snoop_fanout::samples         10569330                       # Request fanout histogram
system.tol2bus.snoop_fanout::mean            0.000067                       # Request fanout histogram
system.tol2bus.snoop_fanout::stdev           0.008167                       # Request fanout histogram
system.tol2bus.snoop_fanout::underflows             0      0.00%      0.00% # Request fanout histogram
system.tol2bus.snoop_fanout::0               10568625     99.99%     99.99% # Request fanout histogram
system.tol2bus.snoop_fanout::1                    705      0.01%    100.00% # Request fanout histogram
system.tol2bus.snoop_fanout::2                      0      0.00%    100.00% # Request fanout histogram
system.tol2bus.snoop_fanout::overflows              0      0.00%    100.00% # Request fanout histogram
system.tol2bus.snoop_fanout::min_value              0                       # Request fanout histogram
system.tol2bus.snoop_fanout::max_value              1                       # Request fanout histogram
system.tol2bus.snoop_fanout::total           10569330                       # Request fanout histogram
system.tol2bus.power_state.pwrStateResidencyTicks::UNDEFINED 516983213500                       # Cumulative time (in ticks) in various power states
system.tol2bus.reqLayer0.occupancy        10599511000                       # Layer occupancy (ticks)
system.tol2bus.reqLayer0.utilization              2.1                       # Layer utilization (%)
system.tol2bus.respLayer0.occupancy           1083000                       # Layer occupancy (ticks)
system.tol2bus.respLayer0.utilization             0.0                       # Layer utilization (%)
system.tol2bus.respLayer1.occupancy        7950404498                       # Layer occupancy (ticks)
system.tol2bus.respLayer1.utilization             1.5                       # Layer utilization (%)
system.voltage_domain.voltage                       1                       # Voltage in Volts

---------- End Simulation Statistics   ----------
